MODEL 7
REMARK VINA RESULT:     0.000     15.032     15.946
REMARK INTER + INTRA:          -0.141
REMARK INTER:                   0.000
REMARK INTRA:                  -0.141
REMARK UNBOUND:                -0.141
REMARK  Name = /tmp/bindforge_docking_809efb75-dc61-4263-b324-ae7058e65dcb/ligand_d17e0cb4.pdb
REMARK  3 active torsions:
REMARK  status: ('A' for Active; 'I' for Inactive)
REMARK    1  A    between atoms: C4_4  and  C7_7
REMARK    2  A    between atoms: C7_7  and  C8_8
REMARK    3  A    between atoms: C8_8  and  O2_10
REMARK                            x       y       z     vdW  Elec       q    Type
REMARK                         _______ _______ _______ _____ _____    ______ ____
ROOT
ATOM      1  C1  UNL     1      -6.292   0.418  -1.450  0.00  0.00    +0.000 A 
ATOM      2  C2  UNL     1      -7.463  -0.337  -1.435  0.00  0.00    +0.000 A 
ATOM      3  C3  UNL     1      -7.435  -1.662  -0.994  0.00  0.00    +0.004 A 
ATOM      4  C4  UNL     1      -6.234  -2.245  -0.569  0.00  0.00    -0.037 A 
ATOM      5  C5  UNL     1      -5.063  -1.473  -0.580  0.00  0.00    +0.004 A 
ATOM      6  C6  UNL     1      -5.093  -0.149  -1.022  0.00  0.00    +0.000 A 
ENDROOT
BRANCH   4   7
ATOM      7  C7  UNL     1      -6.205  -3.673  -0.082  0.00  0.00    +0.155 C 
BRANCH   7   8
ATOM      8  C8  UNL     1      -5.658  -3.836   1.314  0.00  0.00    +0.309 C 
ATOM      9  O1  UNL     1      -4.634  -4.394   1.671  0.00  0.00    -0.251 OA
BRANCH   8  10
ATOM     10  O2  UNL     1      -6.464  -3.262   2.236  0.00  0.00    -0.480 OA
ATOM     11  H8  UNL     1      -6.634  -3.987   2.874  0.00  0.00    +0.295 HD
ENDBRANCH   8  10
ENDBRANCH   7   8
ENDBRANCH   4   7
TORSDOF 3
ENDMDL
