MODEL 1
REMARK VINA RESULT:    -0.000      0.000      0.000
REMARK INTER + INTRA:          -0.377
REMARK INTER:                   0.000
REMARK INTRA:                  -0.377
REMARK UNBOUND:                -0.377
REMARK  Name = /tmp/bindforge_docking_d24c35cd-675b-417e-ae98-49aeefbd191c/ligand_4c2785dc.pdb
REMARK  4 active torsions:
REMARK  status: ('A' for Active; 'I' for Inactive)
REMARK    1  A    between atoms: C1_1  and  C2_2
REMARK    2  A    between atoms: C5_5  and  S1_8
REMARK    3  A    between atoms: S1_8  and  N1_11
REMARK    4  A    between atoms: N2_14  and  N3_15
REMARK                            x       y       z     vdW  Elec       q    Type
REMARK                         _______ _______ _______ _____ _____    ______ ____
ROOT
ATOM      1  N1  UNL     1       6.184   1.319  -3.923  0.00  0.00    -0.168 N 
ATOM      2  C8  UNL     1       6.216   0.554  -2.759  0.00  0.00    +0.333 C 
ATOM      3  O3  UNL     1       5.464  -0.387  -2.563  0.00  0.00    -0.250 OA
ATOM      4  N2  UNL     1       7.183   0.996  -1.876  0.00  0.00    -0.231 N 
ATOM      5  H8  UNL     1       6.823   2.086  -4.064  0.00  0.00    +0.178 HD
ATOM      6  H9  UNL     1       7.754   1.797  -2.108  0.00  0.00    +0.171 HD
ENDROOT
BRANCH   4   7
ATOM      7  N3  UNL     1       7.379   0.346  -0.643  0.00  0.00    -0.226 NA
ATOM      8  C9  UNL     1       7.505   1.312   0.456  0.00  0.00    +0.105 C 
ATOM      9  C10 UNL     1       7.630   0.602   1.804  0.00  0.00    +0.017 C 
ATOM     10  C11 UNL     1       8.785  -0.394   1.803  0.00  0.00    +0.003 C 
ATOM     11  C12 UNL     1       8.667  -1.346   0.618  0.00  0.00    +0.017 C 
ATOM     12  C13 UNL     1       8.515  -0.583  -0.698  0.00  0.00    +0.105 C 
ENDBRANCH   4   7
BRANCH   1  13
ATOM     13  S1  UNL     1       5.109   1.015  -5.159  0.00  0.00    +0.076 S 
ATOM     14  O1  UNL     1       3.770   1.331  -4.715  0.00  0.00    -0.150 OA
ATOM     15  O2  UNL     1       5.450  -0.238  -5.794  0.00  0.00    -0.150 OA
BRANCH  13  20
ATOM     16  C1  UNL     1       6.755   5.402  -9.031  0.00  0.00    +0.044 C 
ATOM     17  C2  UNL     1       6.327   4.338  -8.062  0.00  0.00    -0.050 A 
ATOM     18  C3  UNL     1       6.990   4.192  -6.835  0.00  0.00    +0.005 A 
ATOM     19  C4  UNL     1       6.623   3.179  -5.948  0.00  0.00    +0.029 A 
ATOM     20  C5  UNL     1       5.589   2.308  -6.294  0.00  0.00    +0.109 A 
ATOM     21  C6  UNL     1       4.936   2.422  -7.525  0.00  0.00    +0.029 A 
ATOM     22  C7  UNL     1       5.310   3.438  -8.406  0.00  0.00    +0.005 A 
ENDBRANCH  13  20
ENDBRANCH   1  13
TORSDOF 3
ENDMDL
