MODEL 4
REMARK VINA RESULT:    -0.000     14.323     14.973
REMARK INTER + INTRA:          -0.141
REMARK INTER:                   0.000
REMARK INTRA:                  -0.141
REMARK UNBOUND:                -0.141
REMARK  Name = /tmp/bindforge_docking_809efb75-dc61-4263-b324-ae7058e65dcb/ligand_d17e0cb4.pdb
REMARK  3 active torsions:
REMARK  status: ('A' for Active; 'I' for Inactive)
REMARK    1  A    between atoms: C4_4  and  C7_7
REMARK    2  A    between atoms: C7_7  and  C8_8
REMARK    3  A    between atoms: C8_8  and  O2_10
REMARK                            x       y       z     vdW  Elec       q    Type
REMARK                         _______ _______ _______ _____ _____    ______ ____
ROOT
ATOM      1  C1  UNL     1      -0.358   2.120  -4.165  0.00  0.00    +0.000 A 
ATOM      2  C2  UNL     1       0.143   2.241  -5.459  0.00  0.00    +0.000 A 
ATOM      3  C3  UNL     1       0.983   1.256  -5.980  0.00  0.00    +0.004 A 
ATOM      4  C4  UNL     1       1.335   0.140  -5.208  0.00  0.00    -0.037 A 
ATOM      5  C5  UNL     1       0.818   0.023  -3.909  0.00  0.00    +0.004 A 
ATOM      6  C6  UNL     1      -0.021   1.010  -3.390  0.00  0.00    +0.000 A 
ENDROOT
BRANCH   4   7
ATOM      7  C7  UNL     1       2.234  -0.931  -5.774  0.00  0.00    +0.155 C 
BRANCH   7   8
ATOM      8  C8  UNL     1       1.631  -2.314  -5.753  0.00  0.00    +0.309 C 
ATOM      9  O1  UNL     1       1.984  -3.290  -5.113  0.00  0.00    -0.251 OA
BRANCH   8  10
ATOM     10  O2  UNL     1       0.565  -2.406  -6.580  0.00  0.00    -0.480 OA
ATOM     11  H8  UNL     1      -0.104  -2.876  -6.038  0.00  0.00    +0.295 HD
ENDBRANCH   8  10
ENDBRANCH   7   8
ENDBRANCH   4   7
TORSDOF 3
ENDMDL
