MODEL 6
REMARK VINA RESULT:    -0.000      5.157      6.444
REMARK INTER + INTRA:          -0.641
REMARK INTER:                   0.000
REMARK INTRA:                  -0.641
REMARK UNBOUND:                -0.641
REMARK  Name = /tmp/bindforge_docking_961ec898-9754-41d2-9bfb-eaa9ec109518/ligand_3888f3a0.pdb
REMARK  9 active torsions:
REMARK  status: ('A' for Active; 'I' for Inactive)
REMARK    1  A    between atoms: C1_1  and  C2_2
REMARK    2  A    between atoms: C3_3  and  O1_12
REMARK    3  A    between atoms: C6_6  and  C8_8
REMARK    4  A    between atoms: C8_8  and  C9_9
REMARK    5  A    between atoms: C8_8  and  C10_10
REMARK    6  A    between atoms: C8_8  and  C11_11
REMARK    7  A    between atoms: O1_12  and  C12_13
REMARK    8  A    between atoms: C12_13  and  C13_14
REMARK    9  A    between atoms: C13_14  and  O3_16
REMARK                            x       y       z     vdW  Elec       q    Type
REMARK                         _______ _______ _______ _____ _____    ______ ____
ROOT
ATOM      1  C1  UNL     1      -1.964  -3.204  -1.730  0.00  0.00    +0.047 C 
ATOM      2  C2  UNL     1      -2.027  -4.178  -0.585  0.00  0.00    -0.008 A 
ATOM      3  C3  UNL     1      -2.929  -3.985   0.472  0.00  0.00    +0.124 A 
ATOM      4  C4  UNL     1      -2.956  -4.909   1.515  0.00  0.00    +0.046 A 
ATOM      5  C5  UNL     1      -2.093  -6.014   1.516  0.00  0.00    +0.008 A 
ATOM      6  C6  UNL     1      -1.178  -6.231   0.478  0.00  0.00    -0.042 A 
ATOM      7  C7  UNL     1      -1.166  -5.290  -0.569  0.00  0.00    +0.011 A 
ENDROOT
BRANCH   6   8
ATOM      8  C8  UNL     1      -0.217  -7.432   0.451  0.00  0.00    -0.013 C 
ATOM      9  C9  UNL     1      -0.913  -8.783   0.170  0.00  0.00    +0.015 C 
ATOM     10  C10 UNL     1       0.494  -7.560   1.816  0.00  0.00    +0.015 C 
ATOM     11  C11 UNL     1       0.842  -7.226  -0.655  0.00  0.00    +0.015 C 
ENDBRANCH   6   8
BRANCH   3  12
ATOM     12  O1  UNL     1      -3.726  -2.876   0.372  0.00  0.00    -0.481 OA
BRANCH  12  13
ATOM     13  C12 UNL     1      -3.690  -1.919   1.418  0.00  0.00    +0.349 C 
BRANCH  13  14
ATOM     14  C13 UNL     1      -2.364  -1.198   1.597  0.00  0.00    +0.343 C 
ATOM     15  O2  UNL     1      -1.805  -0.511   0.756  0.00  0.00    -0.247 OA
BRANCH  14  16
ATOM     16  O3  UNL     1      -1.791  -1.406   2.799  0.00  0.00    -0.478 OA
ATOM     17  H18 UNL     1      -2.391  -2.033   3.253  0.00  0.00    +0.295 HD
ENDBRANCH  14  16
ENDBRANCH  13  14
ENDBRANCH  12  13
ENDBRANCH   3  12
TORSDOF 5
ENDMDL
