MODEL 7
REMARK VINA RESULT:    -0.000     11.192     12.413
REMARK INTER + INTRA:          -0.598
REMARK INTER:                   0.000
REMARK INTRA:                  -0.598
REMARK UNBOUND:                -0.598
REMARK  Name = /tmp/bindforge_docking_1d48d786-830f-4031-a0c5-8533277a4919/ligand_8ac72b02.pdb
REMARK  8 active torsions:
REMARK  status: ('A' for Active; 'I' for Inactive)
REMARK    1  A    between atoms: C1_1  and  C2_2
REMARK    2  A    between atoms: C2_2  and  C3_3
REMARK    3  A    between atoms: C2_2  and  C4_4
REMARK    4  A    between atoms: C4_4  and  C5_5
REMARK    5  A    between atoms: C8_8  and  C11_11
REMARK    6  A    between atoms: C11_11  and  C12_12
REMARK    7  A    between atoms: C11_11  and  C13_13
REMARK    8  A    between atoms: C13_13  and  O2_15
REMARK                            x       y       z     vdW  Elec       q    Type
REMARK                         _______ _______ _______ _____ _____    ______ ____
ROOT
ATOM      1  C5  UNL     1       9.271  -5.147  -3.635  0.00  0.00    -0.047 A 
ATOM      2  C6  UNL     1       8.620  -6.102  -2.848  0.00  0.00    +0.004 A 
ATOM      3  C7  UNL     1       7.951  -5.724  -1.680  0.00  0.00    +0.005 A 
ATOM      4  C8  UNL     1       7.919  -4.384  -1.271  0.00  0.00    -0.034 A 
ATOM      5  C9  UNL     1       8.577  -3.430  -2.062  0.00  0.00    +0.005 A 
ATOM      6  C10 UNL     1       9.244  -3.807  -3.231  0.00  0.00    +0.004 A 
ENDROOT
BRANCH   4   7
ATOM      7  C11 UNL     1       7.189  -3.946  -0.011  0.00  0.00    +0.124 C 
ATOM      8  C12 UNL     1       7.301  -2.439   0.217  0.00  0.00    +0.024 C 
BRANCH   7   9
ATOM      9  C13 UNL     1       5.723  -4.349   0.008  0.00  0.00    +0.312 C 
ATOM     10  O1  UNL     1       5.173  -5.164   0.729  0.00  0.00    -0.250 OA
BRANCH   9  11
ATOM     11  O2  UNL     1       5.008  -3.717  -0.950  0.00  0.00    -0.480 OA
ATOM     12  H18 UNL     1       5.137  -4.282  -1.741  0.00  0.00    +0.295 HD
ENDBRANCH   9  11
ENDBRANCH   7   9
ENDBRANCH   4   7
BRANCH   1  13
ATOM     13  C4  UNL     1       9.990  -5.552  -4.900  0.00  0.00    +0.038 C 
BRANCH  13  15
ATOM     14  C1  UNL     1       8.071  -5.321  -6.504  0.00  0.00    +0.007 C 
ATOM     15  C2  UNL     1       9.097  -6.291  -5.915  0.00  0.00    -0.013 C 
ATOM     16  C3  UNL     1       9.915  -6.925  -7.043  0.00  0.00    +0.007 C 
ENDBRANCH  13  15
ENDBRANCH   1  13
TORSDOF 5
ENDMDL
