MODEL 8
REMARK VINA RESULT:     0.001     10.783     12.114
REMARK INTER + INTRA:          -0.729
REMARK INTER:                   0.000
REMARK INTRA:                  -0.729
REMARK UNBOUND:                -0.730
REMARK  Name = /tmp/bindforge_docking_366e04ba-33d9-4203-9467-c92c71645035/ligand_eee2629b.pdb
REMARK  5 active torsions:
REMARK  status: ('A' for Active; 'I' for Inactive)
REMARK    1  A    between atoms: C1_1  and  C2_2
REMARK    2  A    between atoms: C2_2  and  O2_4
REMARK    3  A    between atoms: O2_4  and  C3_5
REMARK    4  A    between atoms: C8_10  and  C9_11
REMARK    5  A    between atoms: C9_11  and  O4_13
REMARK                            x       y       z     vdW  Elec       q    Type
REMARK                         _______ _______ _______ _____ _____    ______ ____
ROOT
ATOM      1  C3  UNL     1       6.503   2.965  -3.672  0.00  0.00    +0.146 A 
ATOM      2  C4  UNL     1       7.274   3.175  -2.523  0.00  0.00    +0.047 A 
ATOM      3  C5  UNL     1       7.632   2.091  -1.724  0.00  0.00    +0.004 A 
ATOM      4  C6  UNL     1       7.212   0.806  -2.066  0.00  0.00    +0.001 A 
ATOM      5  C7  UNL     1       6.426   0.601  -3.205  0.00  0.00    +0.018 A 
ATOM      6  C8  UNL     1       6.056   1.682  -4.020  0.00  0.00    +0.101 A 
ENDROOT
BRANCH   6   7
ATOM      7  C9  UNL     1       5.197   1.476  -5.216  0.00  0.00    +0.340 C 
ATOM      8  O3  UNL     1       4.037   1.107  -5.233  0.00  0.00    -0.245 OA
BRANCH   7   9
ATOM      9  O4  UNL     1       5.843   1.743  -6.368  0.00  0.00    -0.477 OA
ATOM     10  H8  UNL     1       6.362   2.547  -6.163  0.00  0.00    +0.295 HD
ENDBRANCH   7   9
ENDBRANCH   6   7
BRANCH   1  11
ATOM     11  O2  UNL     1       6.154   4.098  -4.412  0.00  0.00    -0.425 OA
BRANCH  11  13
ATOM     12  C1  UNL     1       7.399   6.052  -4.820  0.00  0.00    +0.136 C 
ATOM     13  C2  UNL     1       7.218   4.600  -5.153  0.00  0.00    +0.309 C 
ATOM     14  O1  UNL     1       7.921   3.978  -5.938  0.00  0.00    -0.251 OA
ENDBRANCH  11  13
ENDBRANCH   1  11
TORSDOF 4
ENDMDL
