MODEL 6
REMARK VINA RESULT:     0.000      5.625      9.576
REMARK INTER + INTRA:          -0.377
REMARK INTER:                   0.000
REMARK INTRA:                  -0.377
REMARK UNBOUND:                -0.377
REMARK  Name = /tmp/bindforge_docking_3310986b-c235-4533-8ff8-d231779e240c/ligand_7f873e9b.pdb
REMARK  4 active torsions:
REMARK  status: ('A' for Active; 'I' for Inactive)
REMARK    1  A    between atoms: C1_1  and  C2_2
REMARK    2  A    between atoms: C5_5  and  S1_8
REMARK    3  A    between atoms: S1_8  and  N1_11
REMARK    4  A    between atoms: N2_14  and  N3_15
REMARK                            x       y       z     vdW  Elec       q    Type
REMARK                         _______ _______ _______ _____ _____    ______ ____
ROOT
ATOM      1  N1  UNL     1       1.967  -0.590   1.661  0.00  0.00    -0.168 N 
ATOM      2  C8  UNL     1       2.493  -1.023   0.446  0.00  0.00    +0.333 C 
ATOM      3  O3  UNL     1       2.051  -1.984  -0.163  0.00  0.00    -0.250 OA
ATOM      4  N2  UNL     1       3.558  -0.244   0.036  0.00  0.00    -0.231 N 
ATOM      5  H8  UNL     1       2.346   0.213   2.139  0.00  0.00    +0.178 HD
ATOM      6  H9  UNL     1       3.875   0.526   0.609  0.00  0.00    +0.171 HD
ENDROOT
BRANCH   4   7
ATOM      7  N3  UNL     1       4.221  -0.516  -1.177  0.00  0.00    -0.226 NA
ATOM      8  C9  UNL     1       5.679  -0.473  -1.009  0.00  0.00    +0.105 C 
ATOM      9  C10 UNL     1       6.395  -0.854  -2.304  0.00  0.00    +0.017 C 
ATOM     10  C11 UNL     1       5.942   0.021  -3.469  0.00  0.00    +0.003 C 
ATOM     11  C12 UNL     1       4.422   0.010  -3.583  0.00  0.00    +0.017 C 
ATOM     12  C13 UNL     1       3.759   0.368  -2.254  0.00  0.00    +0.105 C 
ENDBRANCH   4   7
BRANCH   1  13
ATOM     13  S1  UNL     1       0.680  -1.350   2.397  0.00  0.00    +0.076 S 
ATOM     14  O1  UNL     1       1.096  -2.658   2.852  0.00  0.00    -0.150 OA
ATOM     15  O2  UNL     1      -0.515  -1.135   1.613  0.00  0.00    -0.150 OA
BRANCH  13  20
ATOM     16  C1  UNL     1       0.136   2.141   7.342  0.00  0.00    +0.044 C 
ATOM     17  C2  UNL     1       0.290   1.260   6.137  0.00  0.00    -0.050 A 
ATOM     18  C3  UNL     1       1.277   1.538   5.179  0.00  0.00    +0.005 A 
ATOM     19  C4  UNL     1       1.398   0.746   4.037  0.00  0.00    +0.029 A 
ATOM     20  C5  UNL     1       0.524  -0.328   3.852  0.00  0.00    +0.109 A 
ATOM     21  C6  UNL     1      -0.482  -0.602   4.783  0.00  0.00    +0.029 A 
ATOM     22  C7  UNL     1      -0.596   0.196   5.923  0.00  0.00    +0.005 A 
ENDBRANCH  13  20
ENDBRANCH   1  13
TORSDOF 3
ENDMDL
