MODEL 2
REMARK VINA RESULT:     0.000      3.955      5.393
REMARK INTER + INTRA:          -0.730
REMARK INTER:                   0.000
REMARK INTRA:                  -0.730
REMARK UNBOUND:                -0.730
REMARK  Name = /tmp/bindforge_docking_624297ad-3f37-4fec-b288-97d5b5a1d698/ligand_3444761d.pdb
REMARK  5 active torsions:
REMARK  status: ('A' for Active; 'I' for Inactive)
REMARK    1  A    between atoms: C1_1  and  C2_2
REMARK    2  A    between atoms: C2_2  and  O2_4
REMARK    3  A    between atoms: O2_4  and  C3_5
REMARK    4  A    between atoms: C8_10  and  C9_11
REMARK    5  A    between atoms: C9_11  and  O4_13
REMARK                            x       y       z     vdW  Elec       q    Type
REMARK                         _______ _______ _______ _____ _____    ______ ____
ROOT
ATOM      1  C3  UNL     1      -4.899  -6.759   3.838  0.00  0.00    +0.146 A 
ATOM      2  C4  UNL     1      -3.781  -5.919   3.812  0.00  0.00    +0.047 A 
ATOM      3  C5  UNL     1      -3.426  -5.206   4.956  0.00  0.00    +0.004 A 
ATOM      4  C6  UNL     1      -4.194  -5.324   6.115  0.00  0.00    +0.001 A 
ATOM      5  C7  UNL     1      -5.322  -6.150   6.132  0.00  0.00    +0.018 A 
ATOM      6  C8  UNL     1      -5.693  -6.874   4.988  0.00  0.00    +0.101 A 
ENDROOT
BRANCH   6   7
ATOM      7  C9  UNL     1      -6.908  -7.731   4.990  0.00  0.00    +0.340 C 
ATOM      8  O3  UNL     1      -8.064  -7.367   5.095  0.00  0.00    -0.245 OA
BRANCH   7   9
ATOM      9  O4  UNL     1      -6.616  -9.040   4.860  0.00  0.00    -0.477 OA
ATOM     10  H8  UNL     1      -7.317  -9.488   5.377  0.00  0.00    +0.295 HD
ENDBRANCH   7   9
ENDBRANCH   6   7
BRANCH   1  11
ATOM     11  O2  UNL     1      -5.216  -7.422   2.649  0.00  0.00    -0.425 OA
BRANCH  11  13
ATOM     12  C1  UNL     1      -3.780  -8.310   1.012  0.00  0.00    +0.136 C 
ATOM     13  C2  UNL     1      -4.358  -8.484   2.385  0.00  0.00    +0.309 C 
ATOM     14  O1  UNL     1      -4.086  -9.409   3.139  0.00  0.00    -0.251 OA
ENDBRANCH  11  13
ENDBRANCH   1  11
TORSDOF 4
ENDMDL
