MODEL 5
REMARK VINA RESULT:     0.000      9.887     11.084
REMARK INTER + INTRA:          -0.730
REMARK INTER:                   0.000
REMARK INTRA:                  -0.730
REMARK UNBOUND:                -0.730
REMARK  Name = /tmp/bindforge_docking_f8e876e0-5b31-4790-b097-d8defbdb7ed2/ligand_6e783504.pdb
REMARK  5 active torsions:
REMARK  status: ('A' for Active; 'I' for Inactive)
REMARK    1  A    between atoms: C1_1  and  C2_2
REMARK    2  A    between atoms: C2_2  and  O2_4
REMARK    3  A    between atoms: O2_4  and  C3_5
REMARK    4  A    between atoms: C8_10  and  C9_11
REMARK    5  A    between atoms: C9_11  and  O4_13
REMARK                            x       y       z     vdW  Elec       q    Type
REMARK                         _______ _______ _______ _____ _____    ______ ____
ROOT
ATOM      1  C3  UNL     1       1.272   0.037   4.347  0.00  0.00    +0.146 A 
ATOM      2  C4  UNL     1       0.984   1.109   5.200  0.00  0.00    +0.047 A 
ATOM      3  C5  UNL     1       0.502   0.860   6.483  0.00  0.00    +0.004 A 
ATOM      4  C6  UNL     1       0.296  -0.453   6.906  0.00  0.00    +0.001 A 
ATOM      5  C7  UNL     1       0.567  -1.522   6.045  0.00  0.00    +0.018 A 
ATOM      6  C8  UNL     1       1.053  -1.288   4.750  0.00  0.00    +0.101 A 
ENDROOT
BRANCH   6   7
ATOM      7  C9  UNL     1       1.315  -2.418   3.819  0.00  0.00    +0.340 C 
ATOM      8  O3  UNL     1       0.497  -3.180   3.340  0.00  0.00    -0.245 OA
BRANCH   7   9
ATOM      9  O4  UNL     1       2.623  -2.550   3.523  0.00  0.00    -0.477 OA
ATOM     10  H8  UNL     1       3.059  -2.573   4.400  0.00  0.00    +0.295 HD
ENDBRANCH   7   9
ENDBRANCH   6   7
BRANCH   1  11
ATOM     11  O2  UNL     1       1.724   0.357   3.065  0.00  0.00    -0.425 OA
BRANCH  11  13
ATOM     12  C1  UNL     1       3.119   2.122   2.374  0.00  0.00    +0.136 C 
ATOM     13  C2  UNL     1       3.047   0.788   3.056  0.00  0.00    +0.309 C 
ATOM     14  O1  UNL     1       4.009   0.203   3.538  0.00  0.00    -0.251 OA
ENDBRANCH  11  13
ENDBRANCH   1  11
TORSDOF 4
ENDMDL
