MODEL 1
REMARK VINA RESULT:    -0.001      0.000      0.000
REMARK INTER + INTRA:          -0.731
REMARK INTER:                   0.000
REMARK INTRA:                  -0.731
REMARK UNBOUND:                -0.730
REMARK  Name = /tmp/bindforge_docking_b543ad0f-f013-4b3e-914b-f82674ab16e7/ligand_3b604c32.pdb
REMARK  5 active torsions:
REMARK  status: ('A' for Active; 'I' for Inactive)
REMARK    1  A    between atoms: C1_1  and  C2_2
REMARK    2  A    between atoms: C2_2  and  O2_4
REMARK    3  A    between atoms: O2_4  and  C3_5
REMARK    4  A    between atoms: C8_10  and  C9_11
REMARK    5  A    between atoms: C9_11  and  O4_13
REMARK                            x       y       z     vdW  Elec       q    Type
REMARK                         _______ _______ _______ _____ _____    ______ ____
ROOT
ATOM      1  C3  UNL     1       0.371  -5.808   4.376  0.00  0.00    +0.146 A 
ATOM      2  C4  UNL     1       0.521  -5.685   2.991  0.00  0.00    +0.047 A 
ATOM      3  C5  UNL     1      -0.577  -5.888   2.156  0.00  0.00    +0.004 A 
ATOM      4  C6  UNL     1      -1.814  -6.225   2.705  0.00  0.00    +0.001 A 
ATOM      5  C7  UNL     1      -1.957  -6.366   4.089  0.00  0.00    +0.018 A 
ATOM      6  C8  UNL     1      -0.862  -6.165   4.943  0.00  0.00    +0.101 A 
ENDROOT
BRANCH   6   7
ATOM      7  C9  UNL     1      -0.999  -6.342   6.413  0.00  0.00    +0.340 C 
ATOM      8  O3  UNL     1      -1.234  -7.375   7.010  0.00  0.00    -0.245 OA
BRANCH   7   9
ATOM      9  O4  UNL     1      -0.835  -5.188   7.089  0.00  0.00    -0.477 OA
ATOM     10  H8  UNL     1      -0.604  -4.540   6.391  0.00  0.00    +0.295 HD
ENDBRANCH   7   9
ENDBRANCH   6   7
BRANCH   1  11
ATOM     11  O2  UNL     1       1.517  -5.620   5.153  0.00  0.00    -0.425 OA
BRANCH  11  13
ATOM     12  C1  UNL     1       3.307  -4.129   4.829  0.00  0.00    +0.136 C 
ATOM     13  C2  UNL     1       1.878  -4.281   5.257  0.00  0.00    +0.309 C 
ATOM     14  O1  UNL     1       1.161  -3.357   5.617  0.00  0.00    -0.251 OA
ENDBRANCH  11  13
ENDBRANCH   1  11
TORSDOF 4
ENDMDL
