MODEL 3
REMARK VINA RESULT:     0.000      8.801     10.583
REMARK INTER + INTRA:          -0.730
REMARK INTER:                   0.000
REMARK INTRA:                  -0.730
REMARK UNBOUND:                -0.730
REMARK  Name = /tmp/bindforge_docking_1c827d14-e446-4db6-a833-638c220cdc2f/ligand_d6292fd7.pdb
REMARK  5 active torsions:
REMARK  status: ('A' for Active; 'I' for Inactive)
REMARK    1  A    between atoms: C1_1  and  C2_2
REMARK    2  A    between atoms: C2_2  and  O2_4
REMARK    3  A    between atoms: O2_4  and  C3_5
REMARK    4  A    between atoms: C8_10  and  C9_11
REMARK    5  A    between atoms: C9_11  and  O4_13
REMARK                            x       y       z     vdW  Elec       q    Type
REMARK                         _______ _______ _______ _____ _____    ______ ____
ROOT
ATOM      1  C3  UNL     1       2.565   1.949  -5.288  0.00  0.00    +0.146 A 
ATOM      2  C4  UNL     1       3.725   1.576  -4.598  0.00  0.00    +0.047 A 
ATOM      3  C5  UNL     1       4.969   1.729  -5.207  0.00  0.00    +0.004 A 
ATOM      4  C6  UNL     1       5.051   2.240  -6.503  0.00  0.00    +0.001 A 
ATOM      5  C7  UNL     1       3.889   2.594  -7.196  0.00  0.00    +0.018 A 
ATOM      6  C8  UNL     1       2.628   2.445  -6.598  0.00  0.00    +0.101 A 
ENDROOT
BRANCH   6   7
ATOM      7  C9  UNL     1       1.387   2.792  -7.339  0.00  0.00    +0.340 C 
ATOM      8  O3  UNL     1       0.946   2.241  -8.331  0.00  0.00    -0.245 OA
BRANCH   7   9
ATOM      9  O4  UNL     1       0.738   3.841  -6.797  0.00  0.00    -0.477 OA
ATOM     10  H8  UNL     1       0.572   4.432  -7.560  0.00  0.00    +0.295 HD
ENDBRANCH   7   9
ENDBRANCH   6   7
BRANCH   1  11
ATOM     11  O2  UNL     1       1.349   1.742  -4.631  0.00  0.00    -0.425 OA
BRANCH  11  13
ATOM     12  C1  UNL     1       0.836   1.954  -2.345  0.00  0.00    +0.136 C 
ATOM     13  C2  UNL     1       1.118   2.678  -3.628  0.00  0.00    +0.309 C 
ATOM     14  O1  UNL     1       1.153   3.896  -3.743  0.00  0.00    -0.251 OA
ENDBRANCH  11  13
ENDBRANCH   1  11
TORSDOF 4
ENDMDL
