MODEL 9
REMARK VINA RESULT:     0.000      8.251     10.323
REMARK INTER + INTRA:          -0.141
REMARK INTER:                   0.000
REMARK INTRA:                  -0.141
REMARK UNBOUND:                -0.141
REMARK  Name = /tmp/bindforge_docking_2ec5c8af-c38e-41dd-b776-c04cb87561df/ligand_a50034be.pdb
REMARK  3 active torsions:
REMARK  status: ('A' for Active; 'I' for Inactive)
REMARK    1  A    between atoms: C4_4  and  C7_7
REMARK    2  A    between atoms: C7_7  and  C8_8
REMARK    3  A    between atoms: C8_8  and  O2_10
REMARK                            x       y       z     vdW  Elec       q    Type
REMARK                         _______ _______ _______ _____ _____    ______ ____
ROOT
ATOM      1  C1  UNL     1       3.640  -2.979   5.162  0.00  0.00    +0.000 A 
ATOM      2  C2  UNL     1       2.571  -2.407   5.848  0.00  0.00    +0.000 A 
ATOM      3  C3  UNL     1       1.488  -1.881   5.142  0.00  0.00    +0.004 A 
ATOM      4  C4  UNL     1       1.467  -1.917   3.741  0.00  0.00    -0.037 A 
ATOM      5  C5  UNL     1       2.545  -2.503   3.060  0.00  0.00    +0.004 A 
ATOM      6  C6  UNL     1       3.627  -3.028   3.769  0.00  0.00    +0.000 A 
ENDROOT
BRANCH   4   7
ATOM      7  C7  UNL     1       0.292  -1.358   2.977  0.00  0.00    +0.155 C 
BRANCH   7   8
ATOM      8  C8  UNL     1      -0.368  -2.350   2.051  0.00  0.00    +0.309 C 
ATOM      9  O1  UNL     1      -0.421  -2.337   0.833  0.00  0.00    -0.251 OA
BRANCH   8  10
ATOM     10  O2  UNL     1      -0.957  -3.356   2.736  0.00  0.00    -0.480 OA
ATOM     11  H8  UNL     1      -0.312  -3.556   3.447  0.00  0.00    +0.295 HD
ENDBRANCH   8  10
ENDBRANCH   7   8
ENDBRANCH   4   7
TORSDOF 3
ENDMDL
