MODEL 8
REMARK VINA RESULT:     0.000      9.154      9.691
REMARK INTER + INTRA:           0.000
REMARK INTER:                   0.000
REMARK INTRA:                   0.000
REMARK UNBOUND:                 0.000
REMARK  Name = /tmp/bindforge_docking_e7faa7d1-a6b1-4d85-9ed3-23c9d9d6b59f/ligand_380a1b5a.pdb
REMARK  3 active torsions:
REMARK  status: ('A' for Active; 'I' for Inactive)
REMARK    1  A    between atoms: C1_1  and  C2_2
REMARK    2  A    between atoms: C1_1  and  N1_5
REMARK    3  A    between atoms: C2_2  and  O2_4
REMARK                            x       y       z     vdW  Elec       q    Type
REMARK                         _______ _______ _______ _____ _____    ______ ____
ROOT
ATOM      1  C1  UNL     1       3.911  -6.248   3.754  0.00  0.00    +0.199 C 
ENDROOT
BRANCH   1   2
ATOM      2  N1  UNL     1       2.939  -6.190   2.646  0.00  0.00    -0.321 NA
ATOM      3  H4  UNL     1       3.449  -5.960   1.790  0.00  0.00    +0.119 HD
ATOM      4  H5  UNL     1       2.335  -5.379   2.797  0.00  0.00    +0.119 HD
ENDBRANCH   1   2
BRANCH   1   5
ATOM      5  C2  UNL     1       5.304  -5.853   3.284  0.00  0.00    +0.319 C 
ATOM      6  O1  UNL     1       5.707  -4.720   3.067  0.00  0.00    -0.250 OA
BRANCH   5   7
ATOM      7  O2  UNL     1       6.114  -6.915   3.113  0.00  0.00    -0.480 OA
ATOM      8  H3  UNL     1       6.973  -6.623   3.486  0.00  0.00    +0.295 HD
ENDBRANCH   5   7
ENDBRANCH   1   5
TORSDOF 3
ENDMDL
