MODEL 1
REMARK VINA RESULT:    -0.000      0.000      0.000
REMARK INTER + INTRA:          -0.141
REMARK INTER:                   0.000
REMARK INTRA:                  -0.141
REMARK UNBOUND:                -0.141
REMARK  Name = /tmp/bindforge_docking_2ec5c8af-c38e-41dd-b776-c04cb87561df/ligand_a50034be.pdb
REMARK  3 active torsions:
REMARK  status: ('A' for Active; 'I' for Inactive)
REMARK    1  A    between atoms: C4_4  and  C7_7
REMARK    2  A    between atoms: C7_7  and  C8_8
REMARK    3  A    between atoms: C8_8  and  O2_10
REMARK                            x       y       z     vdW  Elec       q    Type
REMARK                         _______ _______ _______ _____ _____    ______ ____
ROOT
ATOM      1  C1  UNL     1      -4.367   4.713  -4.006  0.00  0.00    +0.000 A 
ATOM      2  C2  UNL     1      -3.370   5.450  -3.371  0.00  0.00    +0.000 A 
ATOM      3  C3  UNL     1      -2.271   4.800  -2.808  0.00  0.00    +0.004 A 
ATOM      4  C4  UNL     1      -2.162   3.404  -2.870  0.00  0.00    -0.037 A 
ATOM      5  C5  UNL     1      -3.166   2.672  -3.520  0.00  0.00    +0.004 A 
ATOM      6  C6  UNL     1      -4.265   3.325  -4.081  0.00  0.00    +0.000 A 
ENDROOT
BRANCH   4   7
ATOM      7  C7  UNL     1      -0.968   2.701  -2.271  0.00  0.00    +0.155 C 
BRANCH   7   8
ATOM      8  C8  UNL     1      -0.207   1.839  -3.249  0.00  0.00    +0.309 C 
ATOM      9  O1  UNL     1      -0.079   0.627  -3.256  0.00  0.00    -0.251 OA
BRANCH   8  10
ATOM     10  O2  UNL     1       0.384   2.582  -4.212  0.00  0.00    -0.480 OA
ATOM     11  H8  UNL     1       0.941   1.932  -4.691  0.00  0.00    +0.295 HD
ENDBRANCH   8  10
ENDBRANCH   7   8
ENDBRANCH   4   7
TORSDOF 3
ENDMDL
