MODEL 7
REMARK VINA RESULT:     0.000      7.606      9.026
REMARK INTER + INTRA:          -0.730
REMARK INTER:                   0.000
REMARK INTRA:                  -0.730
REMARK UNBOUND:                -0.730
REMARK  Name = /tmp/bindforge_docking_624297ad-3f37-4fec-b288-97d5b5a1d698/ligand_3444761d.pdb
REMARK  5 active torsions:
REMARK  status: ('A' for Active; 'I' for Inactive)
REMARK    1  A    between atoms: C1_1  and  C2_2
REMARK    2  A    between atoms: C2_2  and  O2_4
REMARK    3  A    between atoms: O2_4  and  C3_5
REMARK    4  A    between atoms: C8_10  and  C9_11
REMARK    5  A    between atoms: C9_11  and  O4_13
REMARK                            x       y       z     vdW  Elec       q    Type
REMARK                         _______ _______ _______ _____ _____    ______ ____
ROOT
ATOM      1  C3  UNL     1       1.257  -4.322  -3.054  0.00  0.00    +0.146 A 
ATOM      2  C4  UNL     1       0.996  -4.873  -1.795  0.00  0.00    +0.047 A 
ATOM      3  C5  UNL     1       1.996  -5.578  -1.129  0.00  0.00    +0.004 A 
ATOM      4  C6  UNL     1       3.247  -5.743  -1.725  0.00  0.00    +0.001 A 
ATOM      5  C7  UNL     1       3.499  -5.207  -2.992  0.00  0.00    +0.018 A 
ATOM      6  C8  UNL     1       2.503  -4.494  -3.677  0.00  0.00    +0.101 A 
ENDROOT
BRANCH   6   7
ATOM      7  C9  UNL     1       2.754  -3.947  -5.036  0.00  0.00    +0.340 C 
ATOM      8  O3  UNL     1       2.958  -4.578  -6.056  0.00  0.00    -0.245 OA
BRANCH   7   9
ATOM      9  O4  UNL     1       2.743  -2.599  -5.060  0.00  0.00    -0.477 OA
ATOM     10  H8  UNL     1       3.683  -2.361  -5.202  0.00  0.00    +0.295 HD
ENDBRANCH   7   9
ENDBRANCH   6   7
BRANCH   1  11
ATOM     11  O2  UNL     1       0.203  -3.652  -3.679  0.00  0.00    -0.425 OA
BRANCH  11  13
ATOM     12  C1  UNL     1      -1.485  -2.316  -2.729  0.00  0.00    +0.136 C 
ATOM     13  C2  UNL     1      -0.040  -2.400  -3.123  0.00  0.00    +0.309 C 
ATOM     14  O1  UNL     1       0.777  -1.506  -2.953  0.00  0.00    -0.251 OA
ENDBRANCH  11  13
ENDBRANCH   1  11
TORSDOF 4
ENDMDL
