MODEL 8
REMARK VINA RESULT:     0.000     11.881     12.863
REMARK INTER + INTRA:          -0.141
REMARK INTER:                   0.000
REMARK INTRA:                  -0.141
REMARK UNBOUND:                -0.141
REMARK  Name = /tmp/bindforge_docking_2ec5c8af-c38e-41dd-b776-c04cb87561df/ligand_a50034be.pdb
REMARK  3 active torsions:
REMARK  status: ('A' for Active; 'I' for Inactive)
REMARK    1  A    between atoms: C4_4  and  C7_7
REMARK    2  A    between atoms: C7_7  and  C8_8
REMARK    3  A    between atoms: C8_8  and  O2_10
REMARK                            x       y       z     vdW  Elec       q    Type
REMARK                         _______ _______ _______ _____ _____    ______ ____
ROOT
ATOM      1  C1  UNL     1      -5.404  -8.187   3.945  0.00  0.00    +0.000 A 
ATOM      2  C2  UNL     1      -4.520  -7.347   3.272  0.00  0.00    +0.000 A 
ATOM      3  C3  UNL     1      -4.721  -5.966   3.282  0.00  0.00    +0.004 A 
ATOM      4  C4  UNL     1      -5.814  -5.412   3.964  0.00  0.00    -0.037 A 
ATOM      5  C5  UNL     1      -6.693  -6.266   4.647  0.00  0.00    +0.004 A 
ATOM      6  C6  UNL     1      -6.489  -7.647   4.634  0.00  0.00    +0.000 A 
ENDROOT
BRANCH   4   7
ATOM      7  C7  UNL     1      -6.026  -3.918   3.986  0.00  0.00    +0.155 C 
BRANCH   7   8
ATOM      8  C8  UNL     1      -6.094  -3.326   5.372  0.00  0.00    +0.309 C 
ATOM      9  O1  UNL     1      -7.041  -2.800   5.930  0.00  0.00    -0.251 OA
BRANCH   8  10
ATOM     10  O2  UNL     1      -4.910  -3.430   6.017  0.00  0.00    -0.480 OA
ATOM     11  H8  UNL     1      -4.262  -3.544   5.289  0.00  0.00    +0.295 HD
ENDBRANCH   8  10
ENDBRANCH   7   8
ENDBRANCH   4   7
TORSDOF 3
ENDMDL
