MODEL 8
REMARK VINA RESULT:    -0.001      6.733      8.948
REMARK INTER + INTRA:          -0.730
REMARK INTER:                   0.000
REMARK INTRA:                  -0.730
REMARK UNBOUND:                -0.729
REMARK  Name = /tmp/bindforge_docking_99865370-1374-4e40-b54b-bfb6cfc11716/ligand_c7d2e9a9.pdb
REMARK  5 active torsions:
REMARK  status: ('A' for Active; 'I' for Inactive)
REMARK    1  A    between atoms: C1_1  and  C2_2
REMARK    2  A    between atoms: C2_2  and  O2_4
REMARK    3  A    between atoms: O2_4  and  C3_5
REMARK    4  A    between atoms: C8_10  and  C9_11
REMARK    5  A    between atoms: C9_11  and  O4_13
REMARK                            x       y       z     vdW  Elec       q    Type
REMARK                         _______ _______ _______ _____ _____    ______ ____
ROOT
ATOM      1  C3  UNL     1       2.836  -5.125   4.373  0.00  0.00    +0.146 A 
ATOM      2  C4  UNL     1       3.231  -6.425   4.705  0.00  0.00    +0.047 A 
ATOM      3  C5  UNL     1       2.352  -7.258   5.397  0.00  0.00    +0.004 A 
ATOM      4  C6  UNL     1       1.092  -6.787   5.765  0.00  0.00    +0.001 A 
ATOM      5  C7  UNL     1       0.708  -5.480   5.448  0.00  0.00    +0.018 A 
ATOM      6  C8  UNL     1       1.580  -4.629   4.753  0.00  0.00    +0.101 A 
ENDROOT
BRANCH   6   7
ATOM      7  C9  UNL     1       1.190  -3.229   4.438  0.00  0.00    +0.340 C 
ATOM      8  O3  UNL     1       0.991  -2.326   5.229  0.00  0.00    -0.245 OA
BRANCH   7   9
ATOM      9  O4  UNL     1       1.057  -3.015   3.114  0.00  0.00    -0.477 OA
ATOM     10  H8  UNL     1       1.023  -2.039   3.038  0.00  0.00    +0.295 HD
ENDBRANCH   7   9
ENDBRANCH   6   7
BRANCH   1  11
ATOM     11  O2  UNL     1       3.774  -4.333   3.706  0.00  0.00    -0.425 OA
BRANCH  11  13
ATOM     12  C1  UNL     1       5.367  -4.955   2.091  0.00  0.00    +0.136 C 
ATOM     13  C2  UNL     1       3.918  -4.688   2.369  0.00  0.00    +0.309 C 
ATOM     14  O1  UNL     1       3.023  -4.792   1.540  0.00  0.00    -0.251 OA
ENDBRANCH  11  13
ENDBRANCH   1  11
TORSDOF 4
ENDMDL
