MODEL 4
REMARK VINA RESULT:    -0.000      7.403      8.880
REMARK INTER + INTRA:          -0.598
REMARK INTER:                   0.000
REMARK INTRA:                  -0.598
REMARK UNBOUND:                -0.598
REMARK  Name = /tmp/bindforge_docking_1d48d786-830f-4031-a0c5-8533277a4919/ligand_8ac72b02.pdb
REMARK  8 active torsions:
REMARK  status: ('A' for Active; 'I' for Inactive)
REMARK    1  A    between atoms: C1_1  and  C2_2
REMARK    2  A    between atoms: C2_2  and  C3_3
REMARK    3  A    between atoms: C2_2  and  C4_4
REMARK    4  A    between atoms: C4_4  and  C5_5
REMARK    5  A    between atoms: C8_8  and  C11_11
REMARK    6  A    between atoms: C11_11  and  C12_12
REMARK    7  A    between atoms: C11_11  and  C13_13
REMARK    8  A    between atoms: C13_13  and  O2_15
REMARK                            x       y       z     vdW  Elec       q    Type
REMARK                         _______ _______ _______ _____ _____    ______ ____
ROOT
ATOM      1  C5  UNL     1      -1.509   1.639   0.255  0.00  0.00    -0.047 A 
ATOM      2  C6  UNL     1      -1.063   2.963   0.175  0.00  0.00    +0.004 A 
ATOM      3  C7  UNL     1      -1.704   3.973   0.898  0.00  0.00    +0.005 A 
ATOM      4  C8  UNL     1      -2.806   3.685   1.715  0.00  0.00    -0.034 A 
ATOM      5  C9  UNL     1      -3.251   2.356   1.789  0.00  0.00    +0.005 A 
ATOM      6  C10 UNL     1      -2.609   1.346   1.068  0.00  0.00    +0.004 A 
ENDROOT
BRANCH   4   7
ATOM      7  C11 UNL     1      -3.513   4.764   2.520  0.00  0.00    +0.124 C 
ATOM      8  C12 UNL     1      -4.680   4.198   3.328  0.00  0.00    +0.024 C 
BRANCH   7   9
ATOM      9  C13 UNL     1      -2.585   5.531   3.448  0.00  0.00    +0.312 C 
ATOM     10  O1  UNL     1      -2.237   6.697   3.375  0.00  0.00    -0.250 OA
BRANCH   9  11
ATOM     11  O2  UNL     1      -2.085   4.747   4.430  0.00  0.00    -0.480 OA
ATOM     12  H18 UNL     1      -1.126   4.712   4.229  0.00  0.00    +0.295 HD
ENDBRANCH   9  11
ENDBRANCH   7   9
ENDBRANCH   4   7
BRANCH   1  13
ATOM     13  C4  UNL     1      -0.814   0.546  -0.521  0.00  0.00    +0.038 C 
BRANCH  13  15
ATOM     14  C1  UNL     1       0.893  -0.103   1.204  0.00  0.00    +0.007 C 
ATOM     15  C2  UNL     1       0.692   0.426  -0.218  0.00  0.00    -0.013 C 
ATOM     16  C3  UNL     1       1.406  -0.490  -1.215  0.00  0.00    +0.007 C 
ENDBRANCH  13  15
ENDBRANCH   1  13
TORSDOF 5
ENDMDL
