MODEL 4
REMARK VINA RESULT:     0.000      6.603      6.944
REMARK INTER + INTRA:           0.000
REMARK INTER:                   0.000
REMARK INTRA:                   0.000
REMARK UNBOUND:                 0.000
REMARK  Name = /tmp/bindforge_docking_f8e7c994-6d54-45fd-a006-f934fc2938ac/ligand_18a190c0.pdb
REMARK  3 active torsions:
REMARK  status: ('A' for Active; 'I' for Inactive)
REMARK    1  A    between atoms: C1_1  and  C2_2
REMARK    2  A    between atoms: C1_1  and  N1_5
REMARK    3  A    between atoms: C2_2  and  O2_4
REMARK                            x       y       z     vdW  Elec       q    Type
REMARK                         _______ _______ _______ _____ _____    ______ ____
ROOT
ATOM      1  C1  UNL     1       3.489   0.545   0.613  0.00  0.00    +0.199 C 
ENDROOT
BRANCH   1   2
ATOM      2  N1  UNL     1       3.921   0.866  -0.761  0.00  0.00    -0.321 NA
ATOM      3  H4  UNL     1       4.434   1.750  -0.733  0.00  0.00    +0.119 HD
ATOM      4  H5  UNL     1       3.088   1.083  -1.313  0.00  0.00    +0.119 HD
ENDBRANCH   1   2
BRANCH   1   5
ATOM      5  C2  UNL     1       4.187   1.437   1.629  0.00  0.00    +0.319 C 
ATOM      6  O1  UNL     1       4.320   2.650   1.567  0.00  0.00    -0.250 OA
BRANCH   5   7
ATOM      7  O2  UNL     1       4.681   0.745   2.674  0.00  0.00    -0.480 OA
ATOM      8  H3  UNL     1       5.192   1.409   3.182  0.00  0.00    +0.295 HD
ENDBRANCH   5   7
ENDBRANCH   1   5
TORSDOF 3
ENDMDL
