MODEL 4
REMARK VINA RESULT:     0.000      9.338     10.817
REMARK INTER + INTRA:          -0.730
REMARK INTER:                   0.000
REMARK INTRA:                  -0.730
REMARK UNBOUND:                -0.730
REMARK  Name = /tmp/bindforge_docking_366e04ba-33d9-4203-9467-c92c71645035/ligand_eee2629b.pdb
REMARK  5 active torsions:
REMARK  status: ('A' for Active; 'I' for Inactive)
REMARK    1  A    between atoms: C1_1  and  C2_2
REMARK    2  A    between atoms: C2_2  and  O2_4
REMARK    3  A    between atoms: O2_4  and  C3_5
REMARK    4  A    between atoms: C8_10  and  C9_11
REMARK    5  A    between atoms: C9_11  and  O4_13
REMARK                            x       y       z     vdW  Elec       q    Type
REMARK                         _______ _______ _______ _____ _____    ______ ____
ROOT
ATOM      1  C3  UNL     1      -7.079   1.907  -5.825  0.00  0.00    +0.146 A 
ATOM      2  C4  UNL     1      -7.020   1.353  -4.542  0.00  0.00    +0.047 A 
ATOM      3  C5  UNL     1      -8.016   0.472  -4.124  0.00  0.00    +0.004 A 
ATOM      4  C6  UNL     1      -9.072   0.158  -4.980  0.00  0.00    +0.001 A 
ATOM      5  C7  UNL     1      -9.138   0.728  -6.255  0.00  0.00    +0.018 A 
ATOM      6  C8  UNL     1      -8.143   1.617  -6.692  0.00  0.00    +0.101 A 
ENDROOT
BRANCH   6   7
ATOM      7  C9  UNL     1      -8.223   2.250  -8.035  0.00  0.00    +0.340 C 
ATOM      8  O3  UNL     1      -9.058   3.043  -8.426  0.00  0.00    -0.245 OA
BRANCH   7   9
ATOM      9  O4  UNL     1      -7.230   1.848  -8.854  0.00  0.00    -0.477 OA
ATOM     10  H8  UNL     1      -7.702   1.436  -9.607  0.00  0.00    +0.295 HD
ENDBRANCH   7   9
ENDBRANCH   6   7
BRANCH   1  11
ATOM     11  O2  UNL     1      -6.065   2.804  -6.171  0.00  0.00    -0.425 OA
BRANCH  11  13
ATOM     12  C1  UNL     1      -3.787   2.773  -5.587  0.00  0.00    +0.136 C 
ATOM     13  C2  UNL     1      -4.859   2.167  -6.443  0.00  0.00    +0.309 C 
ATOM     14  O1  UNL     1      -4.679   1.249  -7.232  0.00  0.00    -0.251 OA
ENDBRANCH  11  13
ENDBRANCH   1  11
TORSDOF 4
ENDMDL
