MODEL 2
REMARK VINA RESULT:    -0.000     13.404     14.299
REMARK INTER + INTRA:          -0.141
REMARK INTER:                   0.000
REMARK INTRA:                  -0.141
REMARK UNBOUND:                -0.141
REMARK  Name = /tmp/bindforge_docking_809efb75-dc61-4263-b324-ae7058e65dcb/ligand_d17e0cb4.pdb
REMARK  3 active torsions:
REMARK  status: ('A' for Active; 'I' for Inactive)
REMARK    1  A    between atoms: C4_4  and  C7_7
REMARK    2  A    between atoms: C7_7  and  C8_8
REMARK    3  A    between atoms: C8_8  and  O2_10
REMARK                            x       y       z     vdW  Elec       q    Type
REMARK                         _______ _______ _______ _____ _____    ______ ____
ROOT
ATOM      1  C1  UNL     1      -8.279  -0.955   2.547  0.00  0.00    +0.000 A 
ATOM      2  C2  UNL     1      -7.595  -2.111   2.178  0.00  0.00    +0.000 A 
ATOM      3  C3  UNL     1      -6.199  -2.128   2.178  0.00  0.00    +0.004 A 
ATOM      4  C4  UNL     1      -5.474  -0.986   2.544  0.00  0.00    -0.037 A 
ATOM      5  C5  UNL     1      -6.173   0.170   2.923  0.00  0.00    +0.004 A 
ATOM      6  C6  UNL     1      -7.569   0.185   2.921  0.00  0.00    +0.000 A 
ENDROOT
BRANCH   4   7
ATOM      7  C7  UNL     1      -3.965  -1.006   2.556  0.00  0.00    +0.155 C 
BRANCH   7   8
ATOM      8  C8  UNL     1      -3.355  -0.641   3.887  0.00  0.00    +0.309 C 
ATOM      9  O1  UNL     1      -2.681   0.333   4.174  0.00  0.00    -0.251 OA
BRANCH   8  10
ATOM     10  O2  UNL     1      -3.636  -1.564   4.834  0.00  0.00    -0.480 OA
ATOM     11  H8  UNL     1      -4.560  -1.356   5.089  0.00  0.00    +0.295 HD
ENDBRANCH   8  10
ENDBRANCH   7   8
ENDBRANCH   4   7
TORSDOF 3
ENDMDL
