MODEL 9
REMARK VINA RESULT:     0.002      5.509      7.113
REMARK INTER + INTRA:          -0.375
REMARK INTER:                   0.000
REMARK INTRA:                  -0.375
REMARK UNBOUND:                -0.377
REMARK  Name = /tmp/bindforge_docking_d24c35cd-675b-417e-ae98-49aeefbd191c/ligand_4c2785dc.pdb
REMARK  4 active torsions:
REMARK  status: ('A' for Active; 'I' for Inactive)
REMARK    1  A    between atoms: C1_1  and  C2_2
REMARK    2  A    between atoms: C5_5  and  S1_8
REMARK    3  A    between atoms: S1_8  and  N1_11
REMARK    4  A    between atoms: N2_14  and  N3_15
REMARK                            x       y       z     vdW  Elec       q    Type
REMARK                         _______ _______ _______ _____ _____    ______ ____
ROOT
ATOM      1  N1  UNL     1       4.001   4.461  -1.415  0.00  0.00    -0.168 N 
ATOM      2  C8  UNL     1       4.441   3.458  -2.275  0.00  0.00    +0.333 C 
ATOM      3  O3  UNL     1       3.985   3.298  -3.396  0.00  0.00    -0.250 OA
ATOM      4  N2  UNL     1       5.432   2.683  -1.703  0.00  0.00    -0.231 N 
ATOM      5  H8  UNL     1       4.401   4.577  -0.497  0.00  0.00    +0.178 HD
ATOM      6  H9  UNL     1       5.742   2.871  -0.759  0.00  0.00    +0.171 HD
ENDROOT
BRANCH   4   7
ATOM      7  N3  UNL     1       6.015   1.620  -2.419  0.00  0.00    -0.226 NA
ATOM      8  C9  UNL     1       6.125   0.414  -1.588  0.00  0.00    +0.105 C 
ATOM      9  C10 UNL     1       6.677  -0.762  -2.393  0.00  0.00    +0.017 C 
ATOM     10  C11 UNL     1       8.010  -0.412  -3.046  0.00  0.00    +0.003 C 
ATOM     11  C12 UNL     1       7.887   0.877  -3.851  0.00  0.00    +0.017 C 
ATOM     12  C13 UNL     1       7.304   2.009  -3.007  0.00  0.00    +0.105 C 
ENDBRANCH   4   7
BRANCH   1  13
ATOM     13  S1  UNL     1       2.804   5.539  -1.842  0.00  0.00    +0.076 S 
ATOM     14  O1  UNL     1       1.543   4.839  -1.939  0.00  0.00    -0.150 OA
ATOM     15  O2  UNL     1       3.298   6.416  -2.881  0.00  0.00    -0.150 OA
BRANCH  13  20
ATOM     16  C1  UNL     1       2.579   8.864   3.241  0.00  0.00    +0.044 C 
ATOM     17  C2  UNL     1       2.613   8.024   1.998  0.00  0.00    -0.050 A 
ATOM     18  C3  UNL     1       3.521   6.961   1.887  0.00  0.00    +0.005 A 
ATOM     19  C4  UNL     1       3.583   6.202   0.718  0.00  0.00    +0.029 A 
ATOM     20  C5  UNL     1       2.734   6.512  -0.346  0.00  0.00    +0.109 A 
ATOM     21  C6  UNL     1       1.843   7.586  -0.263  0.00  0.00    +0.029 A 
ATOM     22  C7  UNL     1       1.786   8.339   0.910  0.00  0.00    +0.005 A 
ENDBRANCH  13  20
ENDBRANCH   1  13
TORSDOF 3
ENDMDL
