MODEL 9
REMARK VINA RESULT:     0.000      5.771      6.907
REMARK INTER + INTRA:          -0.377
REMARK INTER:                   0.000
REMARK INTRA:                  -0.377
REMARK UNBOUND:                -0.377
REMARK  Name = /tmp/bindforge_docking_3310986b-c235-4533-8ff8-d231779e240c/ligand_7f873e9b.pdb
REMARK  4 active torsions:
REMARK  status: ('A' for Active; 'I' for Inactive)
REMARK    1  A    between atoms: C1_1  and  C2_2
REMARK    2  A    between atoms: C5_5  and  S1_8
REMARK    3  A    between atoms: S1_8  and  N1_11
REMARK    4  A    between atoms: N2_14  and  N3_15
REMARK                            x       y       z     vdW  Elec       q    Type
REMARK                         _______ _______ _______ _____ _____    ______ ____
ROOT
ATOM      1  N1  UNL     1      -4.408  -0.256  -3.116  0.00  0.00    -0.168 N 
ATOM      2  C8  UNL     1      -5.259   0.822  -3.349  0.00  0.00    +0.333 C 
ATOM      3  O3  UNL     1      -5.052   1.938  -2.903  0.00  0.00    -0.250 OA
ATOM      4  N2  UNL     1      -6.345   0.466  -4.126  0.00  0.00    -0.231 N 
ATOM      5  H8  UNL     1      -4.598  -1.167  -3.505  0.00  0.00    +0.178 HD
ATOM      6  H9  UNL     1      -6.452  -0.488  -4.442  0.00  0.00    +0.171 HD
ENDROOT
BRANCH   4   7
ATOM      7  N3  UNL     1      -7.317   1.421  -4.481  0.00  0.00    -0.226 NA
ATOM      8  C9  UNL     1      -8.675   0.893  -4.296  0.00  0.00    +0.105 C 
ATOM      9  C10 UNL     1      -9.728   1.959  -4.597  0.00  0.00    +0.017 C 
ATOM     10  C11 UNL     1      -9.542   2.544  -5.993  0.00  0.00    +0.003 C 
ATOM     11  C12 UNL     1      -8.109   3.028  -6.183  0.00  0.00    +0.017 C 
ATOM     12  C13 UNL     1      -7.101   1.932  -5.840  0.00  0.00    +0.105 C 
ENDBRANCH   4   7
BRANCH   1  13
ATOM     13  S1  UNL     1      -3.022  -0.116  -2.202  0.00  0.00    +0.076 S 
ATOM     14  O1  UNL     1      -3.383   0.111  -0.821  0.00  0.00    -0.150 OA
ATOM     15  O2  UNL     1      -2.063   0.703  -2.908  0.00  0.00    -0.150 OA
BRANCH  13  20
ATOM     16  C1  UNL     1      -0.990  -5.833  -2.567  0.00  0.00    +0.044 C 
ATOM     17  C2  UNL     1      -1.508  -4.429  -2.451  0.00  0.00    -0.050 A 
ATOM     18  C3  UNL     1      -2.692  -4.056  -3.102  0.00  0.00    +0.005 A 
ATOM     19  C4  UNL     1      -3.156  -2.742  -3.030  0.00  0.00    +0.029 A 
ATOM     20  C5  UNL     1      -2.428  -1.797  -2.304  0.00  0.00    +0.109 A 
ATOM     21  C6  UNL     1      -1.231  -2.145  -1.673  0.00  0.00    +0.029 A 
ATOM     22  C7  UNL     1      -0.774  -3.462  -1.749  0.00  0.00    +0.005 A 
ENDBRANCH  13  20
ENDBRANCH   1  13
TORSDOF 3
ENDMDL
