MODEL 5
REMARK VINA RESULT:    -0.001     11.749     12.932
REMARK INTER + INTRA:          -0.730
REMARK INTER:                   0.000
REMARK INTRA:                  -0.730
REMARK UNBOUND:                -0.729
REMARK  Name = /tmp/bindforge_docking_9d79cdd4-c013-4c61-900a-f0d1f6bd7daa/ligand_25ba65cd.pdb
REMARK  5 active torsions:
REMARK  status: ('A' for Active; 'I' for Inactive)
REMARK    1  A    between atoms: C1_1  and  C2_2
REMARK    2  A    between atoms: C2_2  and  O2_4
REMARK    3  A    between atoms: O2_4  and  C3_5
REMARK    4  A    between atoms: C8_10  and  C9_11
REMARK    5  A    between atoms: C9_11  and  O4_13
REMARK                            x       y       z     vdW  Elec       q    Type
REMARK                         _______ _______ _______ _____ _____    ______ ____
ROOT
ATOM      1  C3  UNL     1       6.795   6.688  -0.494  0.00  0.00    +0.146 A 
ATOM      2  C4  UNL     1       7.247   5.579  -1.217  0.00  0.00    +0.047 A 
ATOM      3  C5  UNL     1       6.373   4.910  -2.073  0.00  0.00    +0.004 A 
ATOM      4  C6  UNL     1       5.052   5.341  -2.194  0.00  0.00    +0.001 A 
ATOM      5  C7  UNL     1       4.598   6.439  -1.456  0.00  0.00    +0.018 A 
ATOM      6  C8  UNL     1       5.465   7.123  -0.589  0.00  0.00    +0.101 A 
ENDROOT
BRANCH   6   7
ATOM      7  C9  UNL     1       4.982   8.272   0.221  0.00  0.00    +0.340 C 
ATOM      8  O3  UNL     1       4.158   8.246   1.117  0.00  0.00    -0.245 OA
BRANCH   7   9
ATOM      9  O4  UNL     1       5.560   9.435  -0.137  0.00  0.00    -0.477 OA
ATOM     10  H8  UNL     1       5.673   9.911   0.712  0.00  0.00    +0.295 HD
ENDBRANCH   7   9
ENDBRANCH   6   7
BRANCH   1  11
ATOM     11  O2  UNL     1       7.713   7.295   0.367  0.00  0.00    -0.425 OA
BRANCH  11  13
ATOM     12  C1  UNL     1      10.029   7.602   0.097  0.00  0.00    +0.136 C 
ATOM     13  C2  UNL     1       8.659   8.056  -0.311  0.00  0.00    +0.309 C 
ATOM     14  O1  UNL     1       8.437   8.941  -1.126  0.00  0.00    -0.251 OA
ENDBRANCH  11  13
ENDBRANCH   1  11
TORSDOF 4
ENDMDL
