MODEL 3
REMARK VINA RESULT:    -0.000      5.981      7.827
REMARK INTER + INTRA:          -0.141
REMARK INTER:                   0.000
REMARK INTRA:                  -0.141
REMARK UNBOUND:                -0.141
REMARK  Name = /tmp/bindforge_docking_2ec5c8af-c38e-41dd-b776-c04cb87561df/ligand_a50034be.pdb
REMARK  3 active torsions:
REMARK  status: ('A' for Active; 'I' for Inactive)
REMARK    1  A    between atoms: C4_4  and  C7_7
REMARK    2  A    between atoms: C7_7  and  C8_8
REMARK    3  A    between atoms: C8_8  and  O2_10
REMARK                            x       y       z     vdW  Elec       q    Type
REMARK                         _______ _______ _______ _____ _____    ______ ____
ROOT
ATOM      1  C1  UNL     1       3.051  -3.630  -4.088  0.00  0.00    +0.000 A 
ATOM      2  C2  UNL     1       4.173  -3.171  -3.402  0.00  0.00    +0.000 A 
ATOM      3  C3  UNL     1       4.578  -1.841  -3.532  0.00  0.00    +0.004 A 
ATOM      4  C4  UNL     1       3.865  -0.959  -4.355  0.00  0.00    -0.037 A 
ATOM      5  C5  UNL     1       2.732  -1.429  -5.035  0.00  0.00    +0.004 A 
ATOM      6  C6  UNL     1       2.330  -2.759  -4.903  0.00  0.00    +0.000 A 
ENDROOT
BRANCH   4   7
ATOM      7  C7  UNL     1       4.295   0.482  -4.488  0.00  0.00    +0.155 C 
BRANCH   7   8
ATOM      8  C8  UNL     1       3.223   1.480  -4.126  0.00  0.00    +0.309 C 
ATOM      9  O1  UNL     1       2.651   2.278  -4.848  0.00  0.00    -0.251 OA
BRANCH   8  10
ATOM     10  O2  UNL     1       2.910   1.421  -2.812  0.00  0.00    -0.480 OA
ATOM     11  H8  UNL     1       2.570   0.509  -2.698  0.00  0.00    +0.295 HD
ENDBRANCH   8  10
ENDBRANCH   7   8
ENDBRANCH   4   7
TORSDOF 3
ENDMDL
