MODEL 8
REMARK VINA RESULT:     0.001      3.930      5.345
REMARK INTER + INTRA:          -0.729
REMARK INTER:                   0.000
REMARK INTRA:                  -0.729
REMARK UNBOUND:                -0.730
REMARK  Name = /tmp/bindforge_docking_1c827d14-e446-4db6-a833-638c220cdc2f/ligand_d6292fd7.pdb
REMARK  5 active torsions:
REMARK  status: ('A' for Active; 'I' for Inactive)
REMARK    1  A    between atoms: C1_1  and  C2_2
REMARK    2  A    between atoms: C2_2  and  O2_4
REMARK    3  A    between atoms: O2_4  and  C3_5
REMARK    4  A    between atoms: C8_10  and  C9_11
REMARK    5  A    between atoms: C9_11  and  O4_13
REMARK                            x       y       z     vdW  Elec       q    Type
REMARK                         _______ _______ _______ _____ _____    ______ ____
ROOT
ATOM      1  C3  UNL     1      -0.901  -3.964   2.303  0.00  0.00    +0.146 A 
ATOM      2  C4  UNL     1      -0.844  -5.297   2.725  0.00  0.00    +0.047 A 
ATOM      3  C5  UNL     1      -0.876  -6.322   1.781  0.00  0.00    +0.004 A 
ATOM      4  C6  UNL     1      -0.978  -6.015   0.424  0.00  0.00    +0.001 A 
ATOM      5  C7  UNL     1      -1.053  -4.682   0.007  0.00  0.00    +0.018 A 
ATOM      6  C8  UNL     1      -1.022  -3.638   0.944  0.00  0.00    +0.101 A 
ENDROOT
BRANCH   6   7
ATOM      7  C9  UNL     1      -1.132  -2.220   0.510  0.00  0.00    +0.340 C 
ATOM      8  O3  UNL     1      -2.092  -1.683  -0.009  0.00  0.00    -0.245 OA
BRANCH   7   9
ATOM      9  O4  UNL     1      -0.005  -1.520   0.747  0.00  0.00    -0.477 OA
ATOM     10  H8  UNL     1      -0.314  -0.591   0.794  0.00  0.00    +0.295 HD
ENDBRANCH   7   9
ENDBRANCH   6   7
BRANCH   1  11
ATOM     11  O2  UNL     1      -0.893  -2.987   3.302  0.00  0.00    -0.425 OA
BRANCH  11  13
ATOM     12  C1  UNL     1       0.255  -2.964   5.354  0.00  0.00    +0.136 C 
ATOM     13  C2  UNL     1       0.365  -2.810   3.867  0.00  0.00    +0.309 C 
ATOM     14  O1  UNL     1       1.410  -2.585   3.269  0.00  0.00    -0.251 OA
ENDBRANCH  11  13
ENDBRANCH   1  11
TORSDOF 4
ENDMDL
