MODEL 8
REMARK VINA RESULT:     0.001      8.510      9.291
REMARK INTER + INTRA:          -0.729
REMARK INTER:                   0.000
REMARK INTRA:                  -0.729
REMARK UNBOUND:                -0.730
REMARK  Name = /tmp/bindforge_docking_f8e876e0-5b31-4790-b097-d8defbdb7ed2/ligand_6e783504.pdb
REMARK  5 active torsions:
REMARK  status: ('A' for Active; 'I' for Inactive)
REMARK    1  A    between atoms: C1_1  and  C2_2
REMARK    2  A    between atoms: C2_2  and  O2_4
REMARK    3  A    between atoms: O2_4  and  C3_5
REMARK    4  A    between atoms: C8_10  and  C9_11
REMARK    5  A    between atoms: C9_11  and  O4_13
REMARK                            x       y       z     vdW  Elec       q    Type
REMARK                         _______ _______ _______ _____ _____    ______ ____
ROOT
ATOM      1  C3  UNL     1       4.054   4.195   0.727  0.00  0.00    +0.146 A 
ATOM      2  C4  UNL     1       4.928   5.119   0.145  0.00  0.00    +0.047 A 
ATOM      3  C5  UNL     1       5.203   6.318   0.801  0.00  0.00    +0.004 A 
ATOM      4  C6  UNL     1       4.595   6.595   2.026  0.00  0.00    +0.001 A 
ATOM      5  C7  UNL     1       3.707   5.677   2.596  0.00  0.00    +0.018 A 
ATOM      6  C8  UNL     1       3.420   4.466   1.948  0.00  0.00    +0.101 A 
ENDROOT
BRANCH   6   7
ATOM      7  C9  UNL     1       2.454   3.499   2.534  0.00  0.00    +0.340 C 
ATOM      8  O3  UNL     1       1.259   3.660   2.695  0.00  0.00    -0.245 OA
BRANCH   7   9
ATOM      9  O4  UNL     1       3.042   2.345   2.907  0.00  0.00    -0.477 OA
ATOM     10  H8  UNL     1       2.302   1.812   3.267  0.00  0.00    +0.295 HD
ENDBRANCH   7   9
ENDBRANCH   6   7
BRANCH   1  11
ATOM     11  O2  UNL     1       3.800   3.027   0.003  0.00  0.00    -0.425 OA
BRANCH  11  13
ATOM     12  C1  UNL     1       5.252   1.772  -1.356  0.00  0.00    +0.136 C 
ATOM     13  C2  UNL     1       4.861   2.130   0.047  0.00  0.00    +0.309 C 
ATOM     14  O1  UNL     1       5.417   1.703   1.051  0.00  0.00    -0.251 OA
ENDBRANCH  11  13
ENDBRANCH   1  11
TORSDOF 4
ENDMDL
