MODEL 7
REMARK VINA RESULT:     0.000      9.368      9.851
REMARK INTER + INTRA:          -0.377
REMARK INTER:                   0.000
REMARK INTRA:                  -0.377
REMARK UNBOUND:                -0.377
REMARK  Name = /tmp/bindforge_docking_d24c35cd-675b-417e-ae98-49aeefbd191c/ligand_4c2785dc.pdb
REMARK  4 active torsions:
REMARK  status: ('A' for Active; 'I' for Inactive)
REMARK    1  A    between atoms: C1_1  and  C2_2
REMARK    2  A    between atoms: C5_5  and  S1_8
REMARK    3  A    between atoms: S1_8  and  N1_11
REMARK    4  A    between atoms: N2_14  and  N3_15
REMARK                            x       y       z     vdW  Elec       q    Type
REMARK                         _______ _______ _______ _____ _____    ______ ____
ROOT
ATOM      1  N1  UNL     1       0.111  -0.489   2.434  0.00  0.00    -0.168 N 
ATOM      2  C8  UNL     1       0.454  -1.833   2.313  0.00  0.00    +0.333 C 
ATOM      3  O3  UNL     1      -0.145  -2.608   1.586  0.00  0.00    -0.250 OA
ATOM      4  N2  UNL     1       1.531  -2.167   3.114  0.00  0.00    -0.231 N 
ATOM      5  H8  UNL     1       0.629   0.132   3.036  0.00  0.00    +0.178 HD
ATOM      6  H9  UNL     1       1.960  -1.467   3.703  0.00  0.00    +0.171 HD
ENDROOT
BRANCH   4   7
ATOM      7  N3  UNL     1       2.036  -3.481   3.126  0.00  0.00    -0.226 NA
ATOM      8  C9  UNL     1       2.284  -3.945   4.497  0.00  0.00    +0.105 C 
ATOM      9  C10 UNL     1       2.749  -5.400   4.512  0.00  0.00    +0.017 C 
ATOM     10  C11 UNL     1       3.973  -5.603   3.625  0.00  0.00    +0.003 C 
ATOM     11  C12 UNL     1       3.713  -5.057   2.225  0.00  0.00    +0.017 C 
ATOM     12  C13 UNL     1       3.223  -3.610   2.273  0.00  0.00    +0.105 C 
ENDBRANCH   4   7
BRANCH   1  13
ATOM     13  S1  UNL     1      -1.156   0.187   1.588  0.00  0.00    +0.076 S 
ATOM     14  O1  UNL     1      -2.402  -0.349   2.089  0.00  0.00    -0.150 OA
ATOM     15  O2  UNL     1      -0.826   0.225   0.181  0.00  0.00    -0.150 OA
BRANCH  13  20
ATOM     16  C1  UNL     1      -0.773   5.911   3.596  0.00  0.00    +0.044 C 
ATOM     17  C2  UNL     1      -0.887   4.491   3.124  0.00  0.00    -0.050 A 
ATOM     18  C3  UNL     1       0.024   3.522   3.569  0.00  0.00    +0.005 A 
ATOM     19  C4  UNL     1      -0.054   2.210   3.102  0.00  0.00    +0.029 A 
ATOM     20  C5  UNL     1      -1.047   1.867   2.183  0.00  0.00    +0.109 A 
ATOM     21  C6  UNL     1      -1.945   2.826   1.707  0.00  0.00    +0.029 A 
ATOM     22  C7  UNL     1      -1.861   4.137   2.179  0.00  0.00    +0.005 A 
ENDBRANCH  13  20
ENDBRANCH   1  13
TORSDOF 3
ENDMDL
