MODEL 3
REMARK VINA RESULT:    -0.001      9.156     10.420
REMARK INTER + INTRA:          -0.730
REMARK INTER:                   0.000
REMARK INTRA:                  -0.730
REMARK UNBOUND:                -0.729
REMARK  Name = /tmp/bindforge_docking_99865370-1374-4e40-b54b-bfb6cfc11716/ligand_c7d2e9a9.pdb
REMARK  5 active torsions:
REMARK  status: ('A' for Active; 'I' for Inactive)
REMARK    1  A    between atoms: C1_1  and  C2_2
REMARK    2  A    between atoms: C2_2  and  O2_4
REMARK    3  A    between atoms: O2_4  and  C3_5
REMARK    4  A    between atoms: C8_10  and  C9_11
REMARK    5  A    between atoms: C9_11  and  O4_13
REMARK                            x       y       z     vdW  Elec       q    Type
REMARK                         _______ _______ _______ _____ _____    ______ ____
ROOT
ATOM      1  C3  UNL     1      -2.714   4.194   1.238  0.00  0.00    +0.146 A 
ATOM      2  C4  UNL     1      -2.986   3.690   2.514  0.00  0.00    +0.047 A 
ATOM      3  C5  UNL     1      -2.365   2.517   2.940  0.00  0.00    +0.004 A 
ATOM      4  C6  UNL     1      -1.488   1.845   2.088  0.00  0.00    +0.001 A 
ATOM      5  C7  UNL     1      -1.232   2.342   0.806  0.00  0.00    +0.018 A 
ATOM      6  C8  UNL     1      -1.849   3.521   0.361  0.00  0.00    +0.101 A 
ENDROOT
BRANCH   6   7
ATOM      7  C9  UNL     1      -1.605   4.039  -1.011  0.00  0.00    +0.340 C 
ATOM      8  O3  UNL     1      -1.924   3.514  -2.061  0.00  0.00    -0.245 OA
BRANCH   7   9
ATOM      9  O4  UNL     1      -0.953   5.218  -1.009  0.00  0.00    -0.477 OA
ATOM     10  H8  UNL     1      -1.458   5.763  -0.371  0.00  0.00    +0.295 HD
ENDBRANCH   7   9
ENDBRANCH   6   7
BRANCH   1  11
ATOM     11  O2  UNL     1      -3.391   5.357   0.863  0.00  0.00    -0.425 OA
BRANCH  11  13
ATOM     12  C1  UNL     1      -3.999   7.214   2.173  0.00  0.00    +0.136 C 
ATOM     13  C2  UNL     1      -2.881   6.494   1.479  0.00  0.00    +0.309 C 
ATOM     14  O1  UNL     1      -1.713   6.860   1.486  0.00  0.00    -0.251 OA
ENDBRANCH  11  13
ENDBRANCH   1  11
TORSDOF 4
ENDMDL
