MODEL 8
REMARK VINA RESULT:     0.001      6.799      8.526
REMARK INTER + INTRA:          -0.729
REMARK INTER:                   0.000
REMARK INTRA:                  -0.729
REMARK UNBOUND:                -0.730
REMARK  Name = /tmp/bindforge_docking_caea2421-950d-4262-84d2-0fdfdf15fd5a/ligand_3cc70bdb.pdb
REMARK  5 active torsions:
REMARK  status: ('A' for Active; 'I' for Inactive)
REMARK    1  A    between atoms: C1_1  and  C2_2
REMARK    2  A    between atoms: C2_2  and  O2_4
REMARK    3  A    between atoms: O2_4  and  C3_5
REMARK    4  A    between atoms: C8_10  and  C9_11
REMARK    5  A    between atoms: C9_11  and  O4_13
REMARK                            x       y       z     vdW  Elec       q    Type
REMARK                         _______ _______ _______ _____ _____    ______ ____
ROOT
ATOM      1  C3  UNL     1      -5.348   3.313  -2.554  0.00  0.00    +0.146 A 
ATOM      2  C4  UNL     1      -5.927   2.209  -1.919  0.00  0.00    +0.047 A 
ATOM      3  C5  UNL     1      -7.171   2.340  -1.305  0.00  0.00    +0.004 A 
ATOM      4  C6  UNL     1      -7.826   3.572  -1.315  0.00  0.00    +0.001 A 
ATOM      5  C7  UNL     1      -7.235   4.679  -1.935  0.00  0.00    +0.018 A 
ATOM      6  C8  UNL     1      -5.983   4.563  -2.558  0.00  0.00    +0.101 A 
ENDROOT
BRANCH   6   7
ATOM      7  C9  UNL     1      -5.336   5.742  -3.193  0.00  0.00    +0.340 C 
ATOM      8  O3  UNL     1      -4.932   6.746  -2.637  0.00  0.00    -0.245 OA
BRANCH   7   9
ATOM      9  O4  UNL     1      -5.224   5.611  -4.529  0.00  0.00    -0.477 OA
ATOM     10  H8  UNL     1      -5.694   6.395  -4.880  0.00  0.00    +0.295 HD
ENDBRANCH   7   9
ENDBRANCH   6   7
BRANCH   1  11
ATOM     11  O2  UNL     1      -4.087   3.120  -3.125  0.00  0.00    -0.425 OA
BRANCH  11  13
ATOM     12  C1  UNL     1      -3.217   1.223  -4.209  0.00  0.00    +0.136 C 
ATOM     13  C2  UNL     1      -4.142   2.399  -4.312  0.00  0.00    +0.309 C 
ATOM     14  O1  UNL     1      -4.838   2.649  -5.288  0.00  0.00    -0.251 OA
ENDBRANCH  11  13
ENDBRANCH   1  11
TORSDOF 4
ENDMDL
