MODEL 3
REMARK VINA RESULT:     0.000     10.878     12.722
REMARK INTER + INTRA:          -0.730
REMARK INTER:                   0.000
REMARK INTRA:                  -0.730
REMARK UNBOUND:                -0.730
REMARK  Name = /tmp/bindforge_docking_f8e876e0-5b31-4790-b097-d8defbdb7ed2/ligand_6e783504.pdb
REMARK  5 active torsions:
REMARK  status: ('A' for Active; 'I' for Inactive)
REMARK    1  A    between atoms: C1_1  and  C2_2
REMARK    2  A    between atoms: C2_2  and  O2_4
REMARK    3  A    between atoms: O2_4  and  C3_5
REMARK    4  A    between atoms: C8_10  and  C9_11
REMARK    5  A    between atoms: C9_11  and  O4_13
REMARK                            x       y       z     vdW  Elec       q    Type
REMARK                         _______ _______ _______ _____ _____    ______ ____
ROOT
ATOM      1  C3  UNL     1       4.286  -5.060  -1.708  0.00  0.00    +0.146 A 
ATOM      2  C4  UNL     1       4.899  -5.279  -0.470  0.00  0.00    +0.047 A 
ATOM      3  C5  UNL     1       6.242  -4.949  -0.297  0.00  0.00    +0.004 A 
ATOM      4  C6  UNL     1       6.970  -4.415  -1.360  0.00  0.00    +0.001 A 
ATOM      5  C7  UNL     1       6.359  -4.214  -2.602  0.00  0.00    +0.018 A 
ATOM      6  C8  UNL     1       5.008  -4.542  -2.794  0.00  0.00    +0.101 A 
ENDROOT
BRANCH   6   7
ATOM      7  C9  UNL     1       4.359  -4.359  -4.119  0.00  0.00    +0.340 C 
ATOM      8  O3  UNL     1       4.616  -4.951  -5.150  0.00  0.00    -0.245 OA
BRANCH   7   9
ATOM      9  O4  UNL     1       3.397  -3.416  -4.097  0.00  0.00    -0.477 OA
ATOM     10  H8  UNL     1       3.695  -2.795  -3.400  0.00  0.00    +0.295 HD
ENDBRANCH   7   9
ENDBRANCH   6   7
BRANCH   1  11
ATOM     11  O2  UNL     1       2.946  -5.440  -1.823  0.00  0.00    -0.425 OA
BRANCH  11  13
ATOM     12  C1  UNL     1       1.225  -5.330  -0.223  0.00  0.00    +0.136 C 
ATOM     13  C2  UNL     1       2.084  -4.558  -1.180  0.00  0.00    +0.309 C 
ATOM     14  O1  UNL     1       2.029  -3.345  -1.336  0.00  0.00    -0.251 OA
ENDBRANCH  11  13
ENDBRANCH   1  11
TORSDOF 4
ENDMDL
