MODEL 9
REMARK VINA RESULT:     0.001      9.732     11.133
REMARK INTER + INTRA:          -0.729
REMARK INTER:                   0.000
REMARK INTRA:                  -0.729
REMARK UNBOUND:                -0.730
REMARK  Name = /tmp/bindforge_docking_366e04ba-33d9-4203-9467-c92c71645035/ligand_eee2629b.pdb
REMARK  5 active torsions:
REMARK  status: ('A' for Active; 'I' for Inactive)
REMARK    1  A    between atoms: C1_1  and  C2_2
REMARK    2  A    between atoms: C2_2  and  O2_4
REMARK    3  A    between atoms: O2_4  and  C3_5
REMARK    4  A    between atoms: C8_10  and  C9_11
REMARK    5  A    between atoms: C9_11  and  O4_13
REMARK                            x       y       z     vdW  Elec       q    Type
REMARK                         _______ _______ _______ _____ _____    ______ ____
ROOT
ATOM      1  C3  UNL     1       4.713   3.195  -4.319  0.00  0.00    +0.146 A 
ATOM      2  C4  UNL     1       5.952   3.181  -3.669  0.00  0.00    +0.047 A 
ATOM      3  C5  UNL     1       6.470   1.976  -3.197  0.00  0.00    +0.004 A 
ATOM      4  C6  UNL     1       5.747   0.795  -3.364  0.00  0.00    +0.001 A 
ATOM      5  C7  UNL     1       4.501   0.815  -3.998  0.00  0.00    +0.018 A 
ATOM      6  C8  UNL     1       3.964   2.020  -4.479  0.00  0.00    +0.101 A 
ENDROOT
BRANCH   6   7
ATOM      7  C9  UNL     1       2.627   2.054  -5.127  0.00  0.00    +0.340 C 
ATOM      8  O3  UNL     1       1.552   1.820  -4.607  0.00  0.00    -0.245 OA
BRANCH   7   9
ATOM      9  O4  UNL     1       2.694   2.384  -6.432  0.00  0.00    -0.477 OA
ATOM     10  H8  UNL     1       3.366   3.096  -6.458  0.00  0.00    +0.295 HD
ENDBRANCH   7   9
ENDBRANCH   6   7
BRANCH   1  11
ATOM     11  O2  UNL     1       4.239   4.440  -4.742  0.00  0.00    -0.425 OA
BRANCH  11  13
ATOM     12  C1  UNL     1       5.433   6.279  -5.591  0.00  0.00    +0.136 C 
ATOM     13  C2  UNL     1       4.898   4.907  -5.873  0.00  0.00    +0.309 C 
ATOM     14  O1  UNL     1       5.049   4.309  -6.931  0.00  0.00    -0.251 OA
ENDBRANCH  11  13
ENDBRANCH   1  11
TORSDOF 4
ENDMDL
