MODEL 6
REMARK VINA RESULT:     0.001      7.461      9.192
REMARK INTER + INTRA:          -0.729
REMARK INTER:                   0.000
REMARK INTRA:                  -0.729
REMARK UNBOUND:                -0.730
REMARK  Name = /tmp/bindforge_docking_1c827d14-e446-4db6-a833-638c220cdc2f/ligand_d6292fd7.pdb
REMARK  5 active torsions:
REMARK  status: ('A' for Active; 'I' for Inactive)
REMARK    1  A    between atoms: C1_1  and  C2_2
REMARK    2  A    between atoms: C2_2  and  O2_4
REMARK    3  A    between atoms: O2_4  and  C3_5
REMARK    4  A    between atoms: C8_10  and  C9_11
REMARK    5  A    between atoms: C9_11  and  O4_13
REMARK                            x       y       z     vdW  Elec       q    Type
REMARK                         _______ _______ _______ _____ _____    ______ ____
ROOT
ATOM      1  C3  UNL     1       3.126  -2.011   4.434  0.00  0.00    +0.146 A 
ATOM      2  C4  UNL     1       1.732  -1.943   4.341  0.00  0.00    +0.047 A 
ATOM      3  C5  UNL     1       0.986  -1.520   5.440  0.00  0.00    +0.004 A 
ATOM      4  C6  UNL     1       1.632  -1.180   6.629  0.00  0.00    +0.001 A 
ATOM      5  C7  UNL     1       3.024  -1.267   6.725  0.00  0.00    +0.018 A 
ATOM      6  C8  UNL     1       3.790  -1.691   5.628  0.00  0.00    +0.101 A 
ENDROOT
BRANCH   6   7
ATOM      7  C9  UNL     1       5.268  -1.814   5.731  0.00  0.00    +0.340 C 
ATOM      8  O3  UNL     1       5.894  -2.591   6.428  0.00  0.00    -0.245 OA
BRANCH   7   9
ATOM      9  O4  UNL     1       5.916  -0.934   4.943  0.00  0.00    -0.477 OA
ATOM     10  H8  UNL     1       5.193  -0.443   4.499  0.00  0.00    +0.295 HD
ENDBRANCH   7   9
ENDBRANCH   6   7
BRANCH   1  11
ATOM     11  O2  UNL     1       3.811  -2.470   3.306  0.00  0.00    -0.425 OA
BRANCH  11  13
ATOM     12  C1  UNL     1       3.334  -2.119   1.029  0.00  0.00    +0.136 C 
ATOM     13  C2  UNL     1       3.872  -1.518   2.294  0.00  0.00    +0.309 C 
ATOM     14  O1  UNL     1       4.274  -0.367   2.396  0.00  0.00    -0.251 OA
ENDBRANCH  11  13
ENDBRANCH   1  11
TORSDOF 4
ENDMDL
