MODEL 1
REMARK VINA RESULT:     0.000      0.000      0.000
REMARK INTER + INTRA:          -0.730
REMARK INTER:                   0.000
REMARK INTRA:                  -0.730
REMARK UNBOUND:                -0.730
REMARK  Name = /tmp/bindforge_docking_3e760bd8-c96f-47fd-9504-fd77fc4f2169/ligand_3bcbf6af.pdb
REMARK  5 active torsions:
REMARK  status: ('A' for Active; 'I' for Inactive)
REMARK    1  A    between atoms: C1_1  and  C2_2
REMARK    2  A    between atoms: C2_2  and  O2_4
REMARK    3  A    between atoms: O2_4  and  C3_5
REMARK    4  A    between atoms: C8_10  and  C9_11
REMARK    5  A    between atoms: C9_11  and  O4_13
REMARK                            x       y       z     vdW  Elec       q    Type
REMARK                         _______ _______ _______ _____ _____    ______ ____
ROOT
ATOM      1  C3  UNL     1       0.899   0.400  -0.262  0.00  0.00    +0.146 A 
ATOM      2  C4  UNL     1       2.273   0.572  -0.066  0.00  0.00    +0.047 A 
ATOM      3  C5  UNL     1       3.150  -0.467  -0.375  0.00  0.00    +0.004 A 
ATOM      4  C6  UNL     1       2.652  -1.674  -0.864  0.00  0.00    +0.001 A 
ATOM      5  C7  UNL     1       1.276  -1.850  -1.041  0.00  0.00    +0.018 A 
ATOM      6  C8  UNL     1       0.380  -0.814  -0.735  0.00  0.00    +0.101 A 
ENDROOT
BRANCH   6   7
ATOM      7  C9  UNL     1      -1.087  -1.003  -0.893  0.00  0.00    +0.340 C 
ATOM      8  O3  UNL     1      -1.801  -1.763  -0.267  0.00  0.00    -0.245 OA
BRANCH   7   9
ATOM      9  O4  UNL     1      -1.608  -0.216  -1.854  0.00  0.00    -0.477 OA
ATOM     10  H8  UNL     1      -0.850   0.334  -2.142  0.00  0.00    +0.295 HD
ENDBRANCH   7   9
ENDBRANCH   6   7
BRANCH   1  11
ATOM     11  O2  UNL     1       0.074   1.470   0.095  0.00  0.00    -0.425 OA
BRANCH  11  13
ATOM     12  C1  UNL     1       0.468   3.781  -0.093  0.00  0.00    +0.136 C 
ATOM     13  C2  UNL     1       0.128   2.515  -0.821  0.00  0.00    +0.309 C 
ATOM     14  O1  UNL     1      -0.049   2.437  -2.030  0.00  0.00    -0.251 OA
ENDBRANCH  11  13
ENDBRANCH   1  11
TORSDOF 4
ENDMDL
