MODEL 5
REMARK VINA RESULT:     0.000      7.123      9.554
REMARK INTER + INTRA:          -0.377
REMARK INTER:                   0.000
REMARK INTRA:                  -0.377
REMARK UNBOUND:                -0.377
REMARK  Name = /tmp/bindforge_docking_3310986b-c235-4533-8ff8-d231779e240c/ligand_7f873e9b.pdb
REMARK  4 active torsions:
REMARK  status: ('A' for Active; 'I' for Inactive)
REMARK    1  A    between atoms: C1_1  and  C2_2
REMARK    2  A    between atoms: C5_5  and  S1_8
REMARK    3  A    between atoms: S1_8  and  N1_11
REMARK    4  A    between atoms: N2_14  and  N3_15
REMARK                            x       y       z     vdW  Elec       q    Type
REMARK                         _______ _______ _______ _____ _____    ______ ____
ROOT
ATOM      1  N1  UNL     1       1.445   0.049   3.614  0.00  0.00    -0.168 N 
ATOM      2  C8  UNL     1       1.841   1.345   3.292  0.00  0.00    +0.333 C 
ATOM      3  O3  UNL     1       1.197   2.332   3.607  0.00  0.00    -0.250 OA
ATOM      4  N2  UNL     1       3.024   1.362   2.577  0.00  0.00    -0.231 N 
ATOM      5  H8  UNL     1       2.001  -0.750   3.349  0.00  0.00    +0.178 HD
ATOM      6  H9  UNL     1       3.487   0.496   2.340  0.00  0.00    +0.171 HD
ENDROOT
BRANCH   4   7
ATOM      7  N3  UNL     1       3.595   2.581   2.165  0.00  0.00    -0.226 NA
ATOM      8  C9  UNL     1       4.035   2.518   0.765  0.00  0.00    +0.105 C 
ATOM      9  C10 UNL     1       4.574   3.868   0.294  0.00  0.00    +0.017 C 
ATOM     10  C11 UNL     1       5.688   4.372   1.206  0.00  0.00    +0.003 C 
ATOM     11  C12 UNL     1       5.228   4.369   2.660  0.00  0.00    +0.017 C 
ATOM     12  C13 UNL     1       4.673   3.005   3.067  0.00  0.00    +0.105 C 
ENDBRANCH   4   7
BRANCH   1  13
ATOM     13  S1  UNL     1       0.050  -0.271   4.466  0.00  0.00    +0.076 S 
ATOM     14  O1  UNL     1      -1.095   0.050   3.644  0.00  0.00    -0.150 OA
ATOM     15  O2  UNL     1       0.199   0.203   5.824  0.00  0.00    -0.150 OA
BRANCH  13  20
ATOM     16  C1  UNL     1       0.385  -6.334   4.719  0.00  0.00    +0.044 C 
ATOM     17  C2  UNL     1       0.286  -4.839   4.630  0.00  0.00    -0.050 A 
ATOM     18  C3  UNL     1       1.293  -4.101   3.991  0.00  0.00    +0.005 A 
ATOM     19  C4  UNL     1       1.225  -2.708   3.941  0.00  0.00    +0.029 A 
ATOM     20  C5  UNL     1       0.146  -2.052   4.536  0.00  0.00    +0.109 A 
ATOM     21  C6  UNL     1      -0.852  -2.771   5.200  0.00  0.00    +0.029 A 
ATOM     22  C7  UNL     1      -0.777  -4.164   5.246  0.00  0.00    +0.005 A 
ENDBRANCH  13  20
ENDBRANCH   1  13
TORSDOF 3
ENDMDL
