MODEL 5
REMARK VINA RESULT:     0.000     11.099     11.264
REMARK INTER + INTRA:           0.000
REMARK INTER:                   0.000
REMARK INTRA:                   0.000
REMARK UNBOUND:                 0.000
REMARK  Name = /tmp/bindforge_docking_57f742c7-e041-4c39-9436-d7978010b3bc/ligand_1b8510f5.pdb
REMARK  3 active torsions:
REMARK  status: ('A' for Active; 'I' for Inactive)
REMARK    1  A    between atoms: C1_1  and  C2_2
REMARK    2  A    between atoms: C1_1  and  N1_5
REMARK    3  A    between atoms: C2_2  and  O2_4
REMARK                            x       y       z     vdW  Elec       q    Type
REMARK                         _______ _______ _______ _____ _____    ______ ____
ROOT
ATOM      1  C1  UNL     1      -7.257   8.737  -1.553  0.00  0.00    +0.199 C 
ENDROOT
BRANCH   1   2
ATOM      2  N1  UNL     1      -7.066   9.568  -2.756  0.00  0.00    -0.321 NA
ATOM      3  H4  UNL     1      -6.751   8.959  -3.515  0.00  0.00    +0.119 HD
ATOM      4  H5  UNL     1      -6.269  10.187  -2.590  0.00  0.00    +0.119 HD
ENDBRANCH   1   2
BRANCH   1   5
ATOM      5  C2  UNL     1      -5.936   8.149  -1.077  0.00  0.00    +0.319 C 
ATOM      6  O1  UNL     1      -5.073   8.723  -0.430  0.00  0.00    -0.250 OA
BRANCH   5   7
ATOM      7  O2  UNL     1      -5.778   6.863  -1.446  0.00  0.00    -0.480 OA
ATOM      8  H3  UNL     1      -6.530   6.399  -1.023  0.00  0.00    +0.295 HD
ENDBRANCH   5   7
ENDBRANCH   1   5
TORSDOF 3
ENDMDL
