MODEL 6
REMARK VINA RESULT:     0.000      7.133      8.471
REMARK INTER + INTRA:          -0.642
REMARK INTER:                   0.000
REMARK INTRA:                  -0.642
REMARK UNBOUND:                -0.642
REMARK  Name = /tmp/bindforge_docking_d2041b50-87d8-422c-aeeb-2bdaa9714725/ligand_e3bfa9f5.pdb
REMARK  9 active torsions:
REMARK  status: ('A' for Active; 'I' for Inactive)
REMARK    1  A    between atoms: C1_1  and  C2_2
REMARK    2  A    between atoms: C3_3  and  O1_12
REMARK    3  A    between atoms: C6_6  and  C8_8
REMARK    4  A    between atoms: C8_8  and  C9_9
REMARK    5  A    between atoms: C8_8  and  C10_10
REMARK    6  A    between atoms: C8_8  and  C11_11
REMARK    7  A    between atoms: O1_12  and  C12_13
REMARK    8  A    between atoms: C12_13  and  C13_14
REMARK    9  A    between atoms: C13_14  and  O3_16
REMARK                            x       y       z     vdW  Elec       q    Type
REMARK                         _______ _______ _______ _____ _____    ______ ____
ROOT
ATOM      1  C1  UNL     1       0.528   3.200  -6.716  0.00  0.00    +0.047 C 
ATOM      2  C2  UNL     1       0.522   2.436  -5.419  0.00  0.00    -0.008 A 
ATOM      3  C3  UNL     1      -0.686   2.042  -4.824  0.00  0.00    +0.124 A 
ATOM      4  C4  UNL     1      -0.649   1.336  -3.623  0.00  0.00    +0.046 A 
ATOM      5  C5  UNL     1       0.574   1.027  -3.010  0.00  0.00    +0.008 A 
ATOM      6  C6  UNL     1       1.796   1.411  -3.578  0.00  0.00    -0.042 A 
ATOM      7  C7  UNL     1       1.741   2.119  -4.793  0.00  0.00    +0.011 A 
ENDROOT
BRANCH   6   8
ATOM      8  C8  UNL     1       3.154   1.088  -2.930  0.00  0.00    -0.013 C 
ATOM      9  C9  UNL     1       3.543  -0.406  -3.006  0.00  0.00    +0.015 C 
ATOM     10  C10 UNL     1       3.122   1.476  -1.436  0.00  0.00    +0.015 C 
ATOM     11  C11 UNL     1       4.270   1.887  -3.638  0.00  0.00    +0.015 C 
ENDBRANCH   6   8
BRANCH   3  12
ATOM     12  O1  UNL     1      -1.821   2.394  -5.505  0.00  0.00    -0.481 OA
BRANCH  12  13
ATOM     13  C12 UNL     1      -2.792   3.184  -4.839  0.00  0.00    +0.349 C 
BRANCH  13  14
ATOM     14  C13 UNL     1      -2.343   4.585  -4.458  0.00  0.00    +0.343 C 
ATOM     15  O2  UNL     1      -1.963   5.449  -5.235  0.00  0.00    -0.247 OA
BRANCH  14  16
ATOM     16  O3  UNL     1      -2.355   4.817  -3.131  0.00  0.00    -0.478 OA
ATOM     17  H18 UNL     1      -2.315   3.927  -2.724  0.00  0.00    +0.295 HD
ENDBRANCH  14  16
ENDBRANCH  13  14
ENDBRANCH  12  13
ENDBRANCH   3  12
TORSDOF 5
ENDMDL
