MODEL 6
REMARK VINA RESULT:     0.000      6.895      8.113
REMARK INTER + INTRA:          -0.730
REMARK INTER:                   0.000
REMARK INTRA:                  -0.730
REMARK UNBOUND:                -0.730
REMARK  Name = /tmp/bindforge_docking_caea2421-950d-4262-84d2-0fdfdf15fd5a/ligand_3cc70bdb.pdb
REMARK  5 active torsions:
REMARK  status: ('A' for Active; 'I' for Inactive)
REMARK    1  A    between atoms: C1_1  and  C2_2
REMARK    2  A    between atoms: C2_2  and  O2_4
REMARK    3  A    between atoms: O2_4  and  C3_5
REMARK    4  A    between atoms: C8_10  and  C9_11
REMARK    5  A    between atoms: C9_11  and  O4_13
REMARK                            x       y       z     vdW  Elec       q    Type
REMARK                         _______ _______ _______ _____ _____    ______ ____
ROOT
ATOM      1  C3  UNL     1      -0.499  -2.854  -3.696  0.00  0.00    +0.146 A 
ATOM      2  C4  UNL     1      -0.807  -1.554  -3.279  0.00  0.00    +0.047 A 
ATOM      3  C5  UNL     1      -2.138  -1.183  -3.103  0.00  0.00    +0.004 A 
ATOM      4  C6  UNL     1      -3.156  -2.102  -3.358  0.00  0.00    +0.001 A 
ATOM      5  C7  UNL     1      -2.846  -3.395  -3.793  0.00  0.00    +0.018 A 
ATOM      6  C8  UNL     1      -1.510  -3.785  -3.975  0.00  0.00    +0.101 A 
ENDROOT
BRANCH   6   7
ATOM      7  C9  UNL     1      -1.174  -5.147  -4.465  0.00  0.00    +0.340 C 
ATOM      8  O3  UNL     1      -1.427  -5.618  -5.559  0.00  0.00    -0.245 OA
BRANCH   7   9
ATOM      9  O4  UNL     1      -0.524  -5.882  -3.542  0.00  0.00    -0.477 OA
ATOM     10  H8  UNL     1      -0.600  -5.349  -2.724  0.00  0.00    +0.295 HD
ENDBRANCH   7   9
ENDBRANCH   6   7
BRANCH   1  11
ATOM     11  O2  UNL     1       0.854  -3.152  -3.880  0.00  0.00    -0.425 OA
BRANCH  11  13
ATOM     12  C1  UNL     1       2.722  -2.408  -2.660  0.00  0.00    +0.136 C 
ATOM     13  C2  UNL     1       1.532  -3.321  -2.678  0.00  0.00    +0.309 C 
ATOM     14  O1  UNL     1       1.219  -4.068  -1.761  0.00  0.00    -0.251 OA
ENDBRANCH  11  13
ENDBRANCH   1  11
TORSDOF 4
ENDMDL
