MODEL 3
REMARK VINA RESULT:     0.000      4.930      7.489
REMARK INTER + INTRA:          -0.377
REMARK INTER:                   0.000
REMARK INTRA:                  -0.377
REMARK UNBOUND:                -0.377
REMARK  Name = /tmp/bindforge_docking_3310986b-c235-4533-8ff8-d231779e240c/ligand_7f873e9b.pdb
REMARK  4 active torsions:
REMARK  status: ('A' for Active; 'I' for Inactive)
REMARK    1  A    between atoms: C1_1  and  C2_2
REMARK    2  A    between atoms: C5_5  and  S1_8
REMARK    3  A    between atoms: S1_8  and  N1_11
REMARK    4  A    between atoms: N2_14  and  N3_15
REMARK                            x       y       z     vdW  Elec       q    Type
REMARK                         _______ _______ _______ _____ _____    ______ ____
ROOT
ATOM      1  N1  UNL     1       0.936   0.108  -1.229  0.00  0.00    -0.168 N 
ATOM      2  C8  UNL     1       1.325  -1.156  -0.791  0.00  0.00    +0.333 C 
ATOM      3  O3  UNL     1       0.755  -1.750   0.110  0.00  0.00    -0.250 OA
ATOM      4  N2  UNL     1       2.419  -1.632  -1.489  0.00  0.00    -0.231 N 
ATOM      5  H8  UNL     1       1.419   0.573  -1.982  0.00  0.00    +0.178 HD
ATOM      6  H9  UNL     1       2.844  -1.068  -2.211  0.00  0.00    +0.171 HD
ENDROOT
BRANCH   4   7
ATOM      7  N3  UNL     1       2.958  -2.900  -1.200  0.00  0.00    -0.226 NA
ATOM      8  C9  UNL     1       4.423  -2.850  -1.114  0.00  0.00    +0.105 C 
ATOM      9  C10 UNL     1       5.000  -4.207  -0.714  0.00  0.00    +0.017 C 
ATOM     10  C11 UNL     1       4.535  -5.310  -1.659  0.00  0.00    +0.003 C 
ATOM     11  C12 UNL     1       3.015  -5.302  -1.781  0.00  0.00    +0.017 C 
ATOM     12  C13 UNL     1       2.492  -3.915  -2.153  0.00  0.00    +0.105 C 
ENDBRANCH   4   7
BRANCH   1  13
ATOM     13  S1  UNL     1      -0.351   0.926  -0.558  0.00  0.00    +0.076 S 
ATOM     14  O1  UNL     1      -0.016   1.315   0.794  0.00  0.00    -0.150 OA
ATOM     15  O2  UNL     1      -1.581   0.247  -0.897  0.00  0.00    -0.150 OA
BRANCH  13  20
ATOM     16  C1  UNL     1      -0.201   5.982  -3.928  0.00  0.00    +0.044 C 
ATOM     17  C2  UNL     1      -0.218   4.747  -3.075  0.00  0.00    -0.050 A 
ATOM     18  C3  UNL     1       0.710   3.720  -3.299  0.00  0.00    +0.005 A 
ATOM     19  C4  UNL     1       0.671   2.553  -2.534  0.00  0.00    +0.029 A 
ATOM     20  C5  UNL     1      -0.303   2.414  -1.544  0.00  0.00    +0.109 A 
ATOM     21  C6  UNL     1      -1.252   3.416  -1.327  0.00  0.00    +0.029 A 
ATOM     22  C7  UNL     1      -1.207   4.581  -2.095  0.00  0.00    +0.005 A 
ENDBRANCH  13  20
ENDBRANCH   1  13
TORSDOF 3
ENDMDL
