MODEL 1
REMARK VINA RESULT:    -0.001      0.000      0.000
REMARK INTER + INTRA:          -0.731
REMARK INTER:                   0.000
REMARK INTRA:                  -0.731
REMARK UNBOUND:                -0.730
REMARK  Name = /tmp/bindforge_docking_68596179-1fb9-47ff-b18e-febccc65ad33/ligand_d1b4f9d2.pdb
REMARK  5 active torsions:
REMARK  status: ('A' for Active; 'I' for Inactive)
REMARK    1  A    between atoms: C1_1  and  C2_2
REMARK    2  A    between atoms: C2_2  and  O2_4
REMARK    3  A    between atoms: O2_4  and  C3_5
REMARK    4  A    between atoms: C8_10  and  C9_11
REMARK    5  A    between atoms: C9_11  and  O4_13
REMARK                            x       y       z     vdW  Elec       q    Type
REMARK                         _______ _______ _______ _____ _____    ______ ____
ROOT
ATOM      1  C3  UNL     1       3.982   0.320   0.921  0.00  0.00    +0.146 A 
ATOM      2  C4  UNL     1       4.473  -0.986   1.023  0.00  0.00    +0.047 A 
ATOM      3  C5  UNL     1       3.656  -1.992   1.535  0.00  0.00    +0.004 A 
ATOM      4  C6  UNL     1       2.360  -1.691   1.954  0.00  0.00    +0.001 A 
ATOM      5  C7  UNL     1       1.878  -0.380   1.868  0.00  0.00    +0.018 A 
ATOM      6  C8  UNL     1       2.688   0.645   1.355  0.00  0.00    +0.101 A 
ENDROOT
BRANCH   6   7
ATOM      7  C9  UNL     1       2.194   2.046   1.288  0.00  0.00    +0.340 C 
ATOM      8  O3  UNL     1       1.919   2.774   2.223  0.00  0.00    -0.245 OA
BRANCH   7   9
ATOM      9  O4  UNL     1       2.057   2.484   0.021  0.00  0.00    -0.477 OA
ATOM     10  H8  UNL     1       2.497   3.359   0.028  0.00  0.00    +0.295 HD
ENDBRANCH   7   9
ENDBRANCH   6   7
BRANCH   1  11
ATOM     11  O2  UNL     1       4.862   1.286   0.427  0.00  0.00    -0.425 OA
BRANCH  11  13
ATOM     12  C1  UNL     1       6.512   1.086  -1.238  0.00  0.00    +0.136 C 
ATOM     13  C2  UNL     1       5.044   1.190  -0.949  0.00  0.00    +0.309 C 
ATOM     14  O1  UNL     1       4.167   1.171  -1.802  0.00  0.00    -0.251 OA
ENDBRANCH  11  13
ENDBRANCH   1  11
TORSDOF 4
ENDMDL
