MODEL 8
REMARK VINA RESULT:    -0.000      6.766      8.881
REMARK INTER + INTRA:          -0.641
REMARK INTER:                   0.000
REMARK INTRA:                  -0.641
REMARK UNBOUND:                -0.641
REMARK  Name = /tmp/bindforge_docking_961ec898-9754-41d2-9bfb-eaa9ec109518/ligand_3888f3a0.pdb
REMARK  9 active torsions:
REMARK  status: ('A' for Active; 'I' for Inactive)
REMARK    1  A    between atoms: C1_1  and  C2_2
REMARK    2  A    between atoms: C3_3  and  O1_12
REMARK    3  A    between atoms: C6_6  and  C8_8
REMARK    4  A    between atoms: C8_8  and  C9_9
REMARK    5  A    between atoms: C8_8  and  C10_10
REMARK    6  A    between atoms: C8_8  and  C11_11
REMARK    7  A    between atoms: O1_12  and  C12_13
REMARK    8  A    between atoms: C12_13  and  C13_14
REMARK    9  A    between atoms: C13_14  and  O3_16
REMARK                            x       y       z     vdW  Elec       q    Type
REMARK                         _______ _______ _______ _____ _____    ______ ____
ROOT
ATOM      1  C1  UNL     1      -4.458  -0.012  -6.768  0.00  0.00    +0.047 C 
ATOM      2  C2  UNL     1      -4.332   0.254  -5.292  0.00  0.00    -0.008 A 
ATOM      3  C3  UNL     1      -4.605  -0.754  -4.356  0.00  0.00    +0.124 A 
ATOM      4  C4  UNL     1      -4.477  -0.468  -2.998  0.00  0.00    +0.046 A 
ATOM      5  C5  UNL     1      -4.089   0.810  -2.568  0.00  0.00    +0.008 A 
ATOM      6  C6  UNL     1      -3.814   1.838  -3.479  0.00  0.00    -0.042 A 
ATOM      7  C7  UNL     1      -3.945   1.530  -4.846  0.00  0.00    +0.011 A 
ENDROOT
BRANCH   6   8
ATOM      8  C8  UNL     1      -3.388   3.249  -3.039  0.00  0.00    -0.013 C 
ATOM      9  C9  UNL     1      -1.953   3.318  -2.469  0.00  0.00    +0.015 C 
ATOM     10  C10 UNL     1      -4.341   3.761  -1.937  0.00  0.00    +0.015 C 
ATOM     11  C11 UNL     1      -3.446   4.210  -4.247  0.00  0.00    +0.015 C 
ENDBRANCH   6   8
BRANCH   3  12
ATOM     12  O1  UNL     1      -4.976  -1.963  -4.881  0.00  0.00    -0.481 OA
BRANCH  12  13
ATOM     13  C12 UNL     1      -6.224  -2.515  -4.496  0.00  0.00    +0.349 C 
BRANCH  13  14
ATOM     14  C13 UNL     1      -7.448  -1.725  -4.927  0.00  0.00    +0.343 C 
ATOM     15  O2  UNL     1      -7.757  -1.460  -6.079  0.00  0.00    -0.247 OA
BRANCH  14  16
ATOM     16  O3  UNL     1      -8.194  -1.276  -3.899  0.00  0.00    -0.478 OA
ATOM     17  H18 UNL     1      -9.102  -1.582  -4.101  0.00  0.00    +0.295 HD
ENDBRANCH  14  16
ENDBRANCH  13  14
ENDBRANCH  12  13
ENDBRANCH   3  12
TORSDOF 5
ENDMDL
