MODEL 7
REMARK VINA RESULT:     0.000      4.406      6.824
REMARK INTER + INTRA:          -0.641
REMARK INTER:                   0.000
REMARK INTRA:                  -0.641
REMARK UNBOUND:                -0.642
REMARK  Name = /tmp/bindforge_docking_d2041b50-87d8-422c-aeeb-2bdaa9714725/ligand_e3bfa9f5.pdb
REMARK  9 active torsions:
REMARK  status: ('A' for Active; 'I' for Inactive)
REMARK    1  A    between atoms: C1_1  and  C2_2
REMARK    2  A    between atoms: C3_3  and  O1_12
REMARK    3  A    between atoms: C6_6  and  C8_8
REMARK    4  A    between atoms: C8_8  and  C9_9
REMARK    5  A    between atoms: C8_8  and  C10_10
REMARK    6  A    between atoms: C8_8  and  C11_11
REMARK    7  A    between atoms: O1_12  and  C12_13
REMARK    8  A    between atoms: C12_13  and  C13_14
REMARK    9  A    between atoms: C13_14  and  O3_16
REMARK                            x       y       z     vdW  Elec       q    Type
REMARK                         _______ _______ _______ _____ _____    ______ ____
ROOT
ATOM      1  C1  UNL     1      -2.522  -4.454  -1.048  0.00  0.00    +0.047 C 
ATOM      2  C2  UNL     1      -3.997  -4.613  -1.303  0.00  0.00    -0.008 A 
ATOM      3  C3  UNL     1      -4.933  -3.835  -0.605  0.00  0.00    +0.124 A 
ATOM      4  C4  UNL     1      -6.290  -4.012  -0.869  0.00  0.00    +0.046 A 
ATOM      5  C5  UNL     1      -6.719  -4.957  -1.813  0.00  0.00    +0.008 A 
ATOM      6  C6  UNL     1      -5.808  -5.751  -2.523  0.00  0.00    -0.042 A 
ATOM      7  C7  UNL     1      -4.442  -5.556  -2.246  0.00  0.00    +0.011 A 
ENDROOT
BRANCH   6   8
ATOM      8  C8  UNL     1      -6.247  -6.796  -3.563  0.00  0.00    -0.013 C 
ATOM      9  C9  UNL     1      -6.796  -6.183  -4.871  0.00  0.00    +0.015 C 
ATOM     10  C10 UNL     1      -7.365  -7.681  -2.970  0.00  0.00    +0.015 C 
ATOM     11  C11 UNL     1      -5.044  -7.685  -3.945  0.00  0.00    +0.015 C 
ENDBRANCH   6   8
BRANCH   3  12
ATOM     12  O1  UNL     1      -4.408  -2.944   0.293  0.00  0.00    -0.481 OA
BRANCH  12  13
ATOM     13  C12 UNL     1      -4.812  -3.032   1.649  0.00  0.00    +0.349 C 
BRANCH  13  14
ATOM     14  C13 UNL     1      -4.407  -4.306   2.370  0.00  0.00    +0.343 C 
ATOM     15  O2  UNL     1      -3.262  -4.698   2.539  0.00  0.00    -0.247 OA
BRANCH  14  16
ATOM     16  O3  UNL     1      -5.451  -5.040   2.804  0.00  0.00    -0.478 OA
ATOM     17  H18 UNL     1      -6.186  -4.805   2.200  0.00  0.00    +0.295 HD
ENDBRANCH  14  16
ENDBRANCH  13  14
ENDBRANCH  12  13
ENDBRANCH   3  12
TORSDOF 5
ENDMDL
