MODEL 7
REMARK VINA RESULT:     0.000      9.353     11.244
REMARK INTER + INTRA:          -0.729
REMARK INTER:                   0.000
REMARK INTRA:                  -0.729
REMARK UNBOUND:                -0.729
REMARK  Name = /tmp/bindforge_docking_9d79cdd4-c013-4c61-900a-f0d1f6bd7daa/ligand_25ba65cd.pdb
REMARK  5 active torsions:
REMARK  status: ('A' for Active; 'I' for Inactive)
REMARK    1  A    between atoms: C1_1  and  C2_2
REMARK    2  A    between atoms: C2_2  and  O2_4
REMARK    3  A    between atoms: O2_4  and  C3_5
REMARK    4  A    between atoms: C8_10  and  C9_11
REMARK    5  A    between atoms: C9_11  and  O4_13
REMARK                            x       y       z     vdW  Elec       q    Type
REMARK                         _______ _______ _______ _____ _____    ______ ____
ROOT
ATOM      1  C3  UNL     1      -0.801   4.640  -5.883  0.00  0.00    +0.146 A 
ATOM      2  C4  UNL     1      -1.508   4.779  -7.082  0.00  0.00    +0.047 A 
ATOM      3  C5  UNL     1      -1.657   6.041  -7.654  0.00  0.00    +0.004 A 
ATOM      4  C6  UNL     1      -1.113   7.159  -7.022  0.00  0.00    +0.001 A 
ATOM      5  C7  UNL     1      -0.423   7.020  -5.813  0.00  0.00    +0.018 A 
ATOM      6  C8  UNL     1      -0.263   5.756  -5.224  0.00  0.00    +0.101 A 
ENDROOT
BRANCH   6   7
ATOM      7  C9  UNL     1       0.444   5.604  -3.926  0.00  0.00    +0.340 C 
ATOM      8  O3  UNL     1       0.090   6.029  -2.842  0.00  0.00    -0.245 OA
BRANCH   7   9
ATOM      9  O4  UNL     1       1.595   4.913  -4.043  0.00  0.00    -0.477 OA
ATOM     10  H8  UNL     1       1.399   4.058  -3.607  0.00  0.00    +0.295 HD
ENDBRANCH   7   9
ENDBRANCH   6   7
BRANCH   1  11
ATOM     11  O2  UNL     1      -0.713   3.351  -5.350  0.00  0.00    -0.425 OA
BRANCH  11  13
ATOM     12  C1  UNL     1      -0.504   1.290  -6.463  0.00  0.00    +0.136 C 
ATOM     13  C2  UNL     1       0.191   2.549  -6.037  0.00  0.00    +0.309 C 
ATOM     14  O1  UNL     1       1.360   2.812  -6.286  0.00  0.00    -0.251 OA
ENDBRANCH  11  13
ENDBRANCH   1  11
TORSDOF 4
ENDMDL
