MODEL 1
REMARK VINA RESULT:    -0.002      0.000      0.000
REMARK INTER + INTRA:          -0.731
REMARK INTER:                   0.000
REMARK INTRA:                  -0.731
REMARK UNBOUND:                -0.729
REMARK  Name = /tmp/bindforge_docking_9d79cdd4-c013-4c61-900a-f0d1f6bd7daa/ligand_25ba65cd.pdb
REMARK  5 active torsions:
REMARK  status: ('A' for Active; 'I' for Inactive)
REMARK    1  A    between atoms: C1_1  and  C2_2
REMARK    2  A    between atoms: C2_2  and  O2_4
REMARK    3  A    between atoms: O2_4  and  C3_5
REMARK    4  A    between atoms: C8_10  and  C9_11
REMARK    5  A    between atoms: C9_11  and  O4_13
REMARK                            x       y       z     vdW  Elec       q    Type
REMARK                         _______ _______ _______ _____ _____    ______ ____
ROOT
ATOM      1  C3  UNL     1      -4.685   7.697   3.609  0.00  0.00    +0.146 A 
ATOM      2  C4  UNL     1      -4.252   9.027   3.661  0.00  0.00    +0.047 A 
ATOM      3  C5  UNL     1      -4.080   9.744   2.478  0.00  0.00    +0.004 A 
ATOM      4  C6  UNL     1      -4.327   9.130   1.250  0.00  0.00    +0.001 A 
ATOM      5  C7  UNL     1      -4.741   7.795   1.201  0.00  0.00    +0.018 A 
ATOM      6  C8  UNL     1      -4.919   7.058   2.382  0.00  0.00    +0.101 A 
ENDROOT
BRANCH   6   7
ATOM      7  C9  UNL     1      -5.330   5.631   2.336  0.00  0.00    +0.340 C 
ATOM      8  O3  UNL     1      -4.693   4.696   1.888  0.00  0.00    -0.245 OA
BRANCH   7   9
ATOM      9  O4  UNL     1      -6.554   5.429   2.862  0.00  0.00    -0.477 OA
ATOM     10  H8  UNL     1      -6.386   5.363   3.825  0.00  0.00    +0.295 HD
ENDBRANCH   7   9
ENDBRANCH   6   7
BRANCH   1  11
ATOM     11  O2  UNL     1      -4.809   7.028   4.829  0.00  0.00    -0.425 OA
BRANCH  11  13
ATOM     12  C1  UNL     1      -5.514   7.853   6.916  0.00  0.00    +0.136 C 
ATOM     13  C2  UNL     1      -5.936   7.422   5.542  0.00  0.00    +0.309 C 
ATOM     14  O1  UNL     1      -7.089   7.443   5.134  0.00  0.00    -0.251 OA
ENDBRANCH  11  13
ENDBRANCH   1  11
TORSDOF 4
ENDMDL
