MODEL 3
REMARK VINA RESULT:     0.000     10.999     11.387
REMARK INTER + INTRA:           0.000
REMARK INTER:                   0.000
REMARK INTRA:                   0.000
REMARK UNBOUND:                 0.000
REMARK  Name = /tmp/bindforge_docking_57f742c7-e041-4c39-9436-d7978010b3bc/ligand_1b8510f5.pdb
REMARK  3 active torsions:
REMARK  status: ('A' for Active; 'I' for Inactive)
REMARK    1  A    between atoms: C1_1  and  C2_2
REMARK    2  A    between atoms: C1_1  and  N1_5
REMARK    3  A    between atoms: C2_2  and  O2_4
REMARK                            x       y       z     vdW  Elec       q    Type
REMARK                         _______ _______ _______ _____ _____    ______ ____
ROOT
ATOM      1  C1  UNL     1       0.515  -3.346   5.653  0.00  0.00    +0.199 C 
ENDROOT
BRANCH   1   2
ATOM      2  N1  UNL     1       0.815  -4.479   6.548  0.00  0.00    -0.321 NA
ATOM      3  H4  UNL     1       1.780  -4.379   6.873  0.00  0.00    +0.119 HD
ATOM      4  H5  UNL     1       0.834  -5.332   5.984  0.00  0.00    +0.119 HD
ENDBRANCH   1   2
BRANCH   1   5
ATOM      5  C2  UNL     1       0.223  -2.082   6.449  0.00  0.00    +0.319 C 
ATOM      6  O1  UNL     1      -0.506  -1.985   7.425  0.00  0.00    -0.250 OA
BRANCH   5   7
ATOM      7  O2  UNL     1       0.871  -1.004   5.966  0.00  0.00    -0.480 OA
ATOM      8  H3  UNL     1       0.243  -0.616   5.321  0.00  0.00    +0.295 HD
ENDBRANCH   5   7
ENDBRANCH   1   5
TORSDOF 3
ENDMDL
