MODEL 5
REMARK VINA RESULT:     0.000      6.590      8.313
REMARK INTER + INTRA:          -0.377
REMARK INTER:                   0.000
REMARK INTRA:                  -0.377
REMARK UNBOUND:                -0.377
REMARK  Name = /tmp/bindforge_docking_d24c35cd-675b-417e-ae98-49aeefbd191c/ligand_4c2785dc.pdb
REMARK  4 active torsions:
REMARK  status: ('A' for Active; 'I' for Inactive)
REMARK    1  A    between atoms: C1_1  and  C2_2
REMARK    2  A    between atoms: C5_5  and  S1_8
REMARK    3  A    between atoms: S1_8  and  N1_11
REMARK    4  A    between atoms: N2_14  and  N3_15
REMARK                            x       y       z     vdW  Elec       q    Type
REMARK                         _______ _______ _______ _____ _____    ______ ____
ROOT
ATOM      1  N1  UNL     1       2.984   1.693   3.496  0.00  0.00    -0.168 N 
ATOM      2  C8  UNL     1       2.501   1.264   4.731  0.00  0.00    +0.333 C 
ATOM      3  O3  UNL     1       1.488   0.595   4.851  0.00  0.00    -0.250 OA
ATOM      4  N2  UNL     1       3.299   1.693   5.775  0.00  0.00    -0.231 N 
ATOM      5  H8  UNL     1       3.829   2.238   3.425  0.00  0.00    +0.178 HD
ATOM      6  H9  UNL     1       4.114   2.261   5.592  0.00  0.00    +0.171 HD
ENDROOT
BRANCH   4   7
ATOM      7  N3  UNL     1       2.983   1.353   7.105  0.00  0.00    -0.226 NA
ATOM      8  C9  UNL     1       3.098   2.516   7.994  0.00  0.00    +0.105 C 
ATOM      9  C10 UNL     1       2.670   2.166   9.419  0.00  0.00    +0.017 C 
ATOM     10  C11 UNL     1       3.453   0.973   9.958  0.00  0.00    +0.003 C 
ATOM     11  C12 UNL     1       3.371  -0.200   8.988  0.00  0.00    +0.017 C 
ATOM     12  C13 UNL     1       3.780   0.214   7.575  0.00  0.00    +0.105 C 
ENDBRANCH   4   7
BRANCH   1  13
ATOM     13  S1  UNL     1       2.215   1.329   2.064  0.00  0.00    +0.076 S 
ATOM     14  O1  UNL     1       0.957   2.037   2.004  0.00  0.00    -0.150 OA
ATOM     15  O2  UNL     1       2.331  -0.089   1.806  0.00  0.00    -0.150 OA
BRANCH  13  20
ATOM     16  C1  UNL     1       5.975   4.092  -1.832  0.00  0.00    +0.044 C 
ATOM     17  C2  UNL     1       5.029   3.436  -0.868  0.00  0.00    -0.050 A 
ATOM     18  C3  UNL     1       5.291   3.466   0.510  0.00  0.00    +0.005 A 
ATOM     19  C4  UNL     1       4.436   2.823   1.406  0.00  0.00    +0.029 A 
ATOM     20  C5  UNL     1       3.317   2.145   0.920  0.00  0.00    +0.109 A 
ATOM     21  C6  UNL     1       3.057   2.082  -0.452  0.00  0.00    +0.029 A 
ATOM     22  C7  UNL     1       3.916   2.728  -1.342  0.00  0.00    +0.005 A 
ENDBRANCH  13  20
ENDBRANCH   1  13
TORSDOF 3
ENDMDL
