MODEL 5
REMARK VINA RESULT:     0.000      5.932      7.593
REMARK INTER + INTRA:          -0.730
REMARK INTER:                   0.000
REMARK INTRA:                  -0.730
REMARK UNBOUND:                -0.730
REMARK  Name = /tmp/bindforge_docking_ed0b5d0c-ea62-42b5-bd76-fc20bad5d8f7/ligand_3387c0bf.pdb
REMARK  5 active torsions:
REMARK  status: ('A' for Active; 'I' for Inactive)
REMARK    1  A    between atoms: C1_1  and  C2_2
REMARK    2  A    between atoms: C2_2  and  O2_4
REMARK    3  A    between atoms: O2_4  and  C3_5
REMARK    4  A    between atoms: C8_10  and  C9_11
REMARK    5  A    between atoms: C9_11  and  O4_13
REMARK                            x       y       z     vdW  Elec       q    Type
REMARK                         _______ _______ _______ _____ _____    ______ ____
ROOT
ATOM      1  C3  UNL     1       2.255   3.666  -2.813  0.00  0.00    +0.146 A 
ATOM      2  C4  UNL     1       1.714   3.942  -1.553  0.00  0.00    +0.047 A 
ATOM      3  C5  UNL     1       1.682   5.256  -1.088  0.00  0.00    +0.004 A 
ATOM      4  C6  UNL     1       2.201   6.284  -1.875  0.00  0.00    +0.001 A 
ATOM      5  C7  UNL     1       2.758   6.002  -3.127  0.00  0.00    +0.018 A 
ATOM      6  C8  UNL     1       2.798   4.685  -3.609  0.00  0.00    +0.101 A 
ENDROOT
BRANCH   6   7
ATOM      7  C9  UNL     1       3.415   4.373  -4.925  0.00  0.00    +0.340 C 
ATOM      8  O3  UNL     1       4.586   4.488  -5.233  0.00  0.00    -0.245 OA
BRANCH   7   9
ATOM      9  O4  UNL     1       2.516   3.925  -5.824  0.00  0.00    -0.477 OA
ATOM     10  H8  UNL     1       2.011   4.728  -6.068  0.00  0.00    +0.295 HD
ENDBRANCH   7   9
ENDBRANCH   6   7
BRANCH   1  11
ATOM     11  O2  UNL     1       2.282   2.325  -3.206  0.00  0.00    -0.425 OA
BRANCH  11  13
ATOM     12  C1  UNL     1       0.717   0.619  -2.788  0.00  0.00    +0.136 C 
ATOM     13  C2  UNL     1       1.029   1.853  -3.581  0.00  0.00    +0.309 C 
ATOM     14  O1  UNL     1       0.275   2.354  -4.405  0.00  0.00    -0.251 OA
ENDBRANCH  11  13
ENDBRANCH   1  11
TORSDOF 4
ENDMDL
