MODEL 3
REMARK VINA RESULT:     0.000      2.792      3.693
REMARK INTER + INTRA:          -0.730
REMARK INTER:                   0.000
REMARK INTRA:                  -0.730
REMARK UNBOUND:                -0.730
REMARK  Name = /tmp/bindforge_docking_3e760bd8-c96f-47fd-9504-fd77fc4f2169/ligand_3bcbf6af.pdb
REMARK  5 active torsions:
REMARK  status: ('A' for Active; 'I' for Inactive)
REMARK    1  A    between atoms: C1_1  and  C2_2
REMARK    2  A    between atoms: C2_2  and  O2_4
REMARK    3  A    between atoms: O2_4  and  C3_5
REMARK    4  A    between atoms: C8_10  and  C9_11
REMARK    5  A    between atoms: C9_11  and  O4_13
REMARK                            x       y       z     vdW  Elec       q    Type
REMARK                         _______ _______ _______ _____ _____    ______ ____
ROOT
ATOM      1  C3  UNL     1      -2.508  -0.393  -0.792  0.00  0.00    +0.146 A 
ATOM      2  C4  UNL     1      -1.209  -0.886  -0.623  0.00  0.00    +0.047 A 
ATOM      3  C5  UNL     1      -0.729  -1.875  -1.479  0.00  0.00    +0.004 A 
ATOM      4  C6  UNL     1      -1.549  -2.378  -2.490  0.00  0.00    +0.001 A 
ATOM      5  C7  UNL     1      -2.853  -1.896  -2.645  0.00  0.00    +0.018 A 
ATOM      6  C8  UNL     1      -3.352  -0.900  -1.792  0.00  0.00    +0.101 A 
ENDROOT
BRANCH   6   7
ATOM      7  C9  UNL     1      -4.746  -0.404  -1.931  0.00  0.00    +0.340 C 
ATOM      8  O3  UNL     1      -5.771  -1.032  -1.745  0.00  0.00    -0.245 OA
BRANCH   7   9
ATOM      9  O4  UNL     1      -4.799   0.887  -2.312  0.00  0.00    -0.477 OA
ATOM     10  H8  UNL     1      -4.070   1.308  -1.811  0.00  0.00    +0.295 HD
ENDBRANCH   7   9
ENDBRANCH   6   7
BRANCH   1  11
ATOM     11  O2  UNL     1      -2.936   0.577   0.117  0.00  0.00    -0.425 OA
BRANCH  11  13
ATOM     12  C1  UNL     1      -1.714   2.314   1.128  0.00  0.00    +0.136 C 
ATOM     13  C2  UNL     1      -2.373   1.825  -0.127  0.00  0.00    +0.309 C 
ATOM     14  O1  UNL     1      -2.382   2.436  -1.188  0.00  0.00    -0.251 OA
ENDBRANCH  11  13
ENDBRANCH   1  11
TORSDOF 4
ENDMDL
