MODEL 2
REMARK VINA RESULT:    -0.000      4.292      5.650
REMARK INTER + INTRA:          -0.642
REMARK INTER:                   0.000
REMARK INTRA:                  -0.642
REMARK UNBOUND:                -0.642
REMARK  Name = /tmp/bindforge_docking_d2041b50-87d8-422c-aeeb-2bdaa9714725/ligand_e3bfa9f5.pdb
REMARK  9 active torsions:
REMARK  status: ('A' for Active; 'I' for Inactive)
REMARK    1  A    between atoms: C1_1  and  C2_2
REMARK    2  A    between atoms: C3_3  and  O1_12
REMARK    3  A    between atoms: C6_6  and  C8_8
REMARK    4  A    between atoms: C8_8  and  C9_9
REMARK    5  A    between atoms: C8_8  and  C10_10
REMARK    6  A    between atoms: C8_8  and  C11_11
REMARK    7  A    between atoms: O1_12  and  C12_13
REMARK    8  A    between atoms: C12_13  and  C13_14
REMARK    9  A    between atoms: C13_14  and  O3_16
REMARK                            x       y       z     vdW  Elec       q    Type
REMARK                         _______ _______ _______ _____ _____    ______ ____
ROOT
ATOM      1  C1  UNL     1      -5.084  -6.542  -1.825  0.00  0.00    +0.047 C 
ATOM      2  C2  UNL     1      -4.221  -5.344  -2.118  0.00  0.00    -0.008 A 
ATOM      3  C3  UNL     1      -3.059  -5.097  -1.371  0.00  0.00    +0.124 A 
ATOM      4  C4  UNL     1      -2.288  -3.977  -1.672  0.00  0.00    +0.046 A 
ATOM      5  C5  UNL     1      -2.664  -3.103  -2.702  0.00  0.00    +0.008 A 
ATOM      6  C6  UNL     1      -3.821  -3.320  -3.463  0.00  0.00    -0.042 A 
ATOM      7  C7  UNL     1      -4.587  -4.458  -3.147  0.00  0.00    +0.011 A 
ENDROOT
BRANCH   6   8
ATOM      8  C8  UNL     1      -4.261  -2.380  -4.597  0.00  0.00    -0.013 C 
ATOM      9  C9  UNL     1      -3.371  -2.462  -5.858  0.00  0.00    +0.015 C 
ATOM     10  C10 UNL     1      -4.221  -0.917  -4.105  0.00  0.00    +0.015 C 
ATOM     11  C11 UNL     1      -5.702  -2.729  -5.032  0.00  0.00    +0.015 C 
ENDBRANCH   6   8
BRANCH   3  12
ATOM     12  O1  UNL     1      -2.783  -6.012  -0.390  0.00  0.00    -0.481 OA
BRANCH  12  13
ATOM     13  C12 UNL     1      -2.658  -5.555   0.947  0.00  0.00    +0.349 C 
BRANCH  13  14
ATOM     14  C13 UNL     1      -3.922  -4.978   1.560  0.00  0.00    +0.343 C 
ATOM     15  O2  UNL     1      -4.979  -5.573   1.711  0.00  0.00    -0.247 OA
BRANCH  14  16
ATOM     16  O3  UNL     1      -3.812  -3.682   1.914  0.00  0.00    -0.478 OA
ATOM     17  H18 UNL     1      -3.141  -3.677   2.627  0.00  0.00    +0.295 HD
ENDBRANCH  14  16
ENDBRANCH  13  14
ENDBRANCH  12  13
ENDBRANCH   3  12
TORSDOF 5
ENDMDL
