MODEL 6
REMARK VINA RESULT:     0.000     12.192     13.625
REMARK INTER + INTRA:          -0.730
REMARK INTER:                   0.000
REMARK INTRA:                  -0.730
REMARK UNBOUND:                -0.730
REMARK  Name = /tmp/bindforge_docking_b543ad0f-f013-4b3e-914b-f82674ab16e7/ligand_3b604c32.pdb
REMARK  5 active torsions:
REMARK  status: ('A' for Active; 'I' for Inactive)
REMARK    1  A    between atoms: C1_1  and  C2_2
REMARK    2  A    between atoms: C2_2  and  O2_4
REMARK    3  A    between atoms: O2_4  and  C3_5
REMARK    4  A    between atoms: C8_10  and  C9_11
REMARK    5  A    between atoms: C9_11  and  O4_13
REMARK                            x       y       z     vdW  Elec       q    Type
REMARK                         _______ _______ _______ _____ _____    ______ ____
ROOT
ATOM      1  C3  UNL     1      -7.307   2.069  -3.153  0.00  0.00    +0.146 A 
ATOM      2  C4  UNL     1      -8.546   2.429  -2.612  0.00  0.00    +0.047 A 
ATOM      3  C5  UNL     1      -8.668   2.621  -1.237  0.00  0.00    +0.004 A 
ATOM      4  C6  UNL     1      -7.561   2.442  -0.408  0.00  0.00    +0.001 A 
ATOM      5  C7  UNL     1      -6.328   2.064  -0.950  0.00  0.00    +0.018 A 
ATOM      6  C8  UNL     1      -6.188   1.865  -2.333  0.00  0.00    +0.101 A 
ENDROOT
BRANCH   6   7
ATOM      7  C9  UNL     1      -4.888   1.435  -2.913  0.00  0.00    +0.340 C 
ATOM      8  O3  UNL     1      -4.320   0.374  -2.735  0.00  0.00    -0.245 OA
BRANCH   7   9
ATOM      9  O4  UNL     1      -4.341   2.376  -3.707  0.00  0.00    -0.477 OA
ATOM     10  H8  UNL     1      -4.873   2.327  -4.528  0.00  0.00    +0.295 HD
ENDBRANCH   7   9
ENDBRANCH   6   7
BRANCH   1  11
ATOM     11  O2  UNL     1      -7.260   1.863  -4.535  0.00  0.00    -0.425 OA
BRANCH  11  13
ATOM     12  C1  UNL     1      -8.408   2.993  -6.249  0.00  0.00    +0.136 C 
ATOM     13  C2  UNL     1      -7.288   3.053  -5.253  0.00  0.00    +0.309 C 
ATOM     14  O1  UNL     1      -6.545   4.015  -5.104  0.00  0.00    -0.251 OA
ENDBRANCH  11  13
ENDBRANCH   1  11
TORSDOF 4
ENDMDL
