MODEL 1
REMARK VINA RESULT:    -0.000      0.000      0.000
REMARK INTER + INTRA:          -0.598
REMARK INTER:                   0.000
REMARK INTRA:                  -0.598
REMARK UNBOUND:                -0.598
REMARK  Name = /tmp/bindforge_docking_1d48d786-830f-4031-a0c5-8533277a4919/ligand_8ac72b02.pdb
REMARK  8 active torsions:
REMARK  status: ('A' for Active; 'I' for Inactive)
REMARK    1  A    between atoms: C1_1  and  C2_2
REMARK    2  A    between atoms: C2_2  and  C3_3
REMARK    3  A    between atoms: C2_2  and  C4_4
REMARK    4  A    between atoms: C4_4  and  C5_5
REMARK    5  A    between atoms: C8_8  and  C11_11
REMARK    6  A    between atoms: C11_11  and  C12_12
REMARK    7  A    between atoms: C11_11  and  C13_13
REMARK    8  A    between atoms: C13_13  and  O2_15
REMARK                            x       y       z     vdW  Elec       q    Type
REMARK                         _______ _______ _______ _____ _____    ______ ____
ROOT
ATOM      1  C5  UNL     1      -1.887  -0.110  -6.143  0.00  0.00    -0.047 A 
ATOM      2  C6  UNL     1      -2.397   1.053  -5.556  0.00  0.00    +0.004 A 
ATOM      3  C7  UNL     1      -1.557   2.137  -5.282  0.00  0.00    +0.005 A 
ATOM      4  C8  UNL     1      -0.190   2.083  -5.587  0.00  0.00    -0.034 A 
ATOM      5  C9  UNL     1       0.316   0.913  -6.172  0.00  0.00    +0.005 A 
ATOM      6  C10 UNL     1      -0.523  -0.170  -6.448  0.00  0.00    +0.004 A 
ENDROOT
BRANCH   4   7
ATOM      7  C11 UNL     1       0.742   3.252  -5.309  0.00  0.00    +0.124 C 
ATOM      8  C12 UNL     1       2.179   2.947  -5.730  0.00  0.00    +0.024 C 
BRANCH   7   9
ATOM      9  C13 UNL     1       0.293   4.550  -5.960  0.00  0.00    +0.312 C 
ATOM     10  O1  UNL     1      -0.118   5.564  -5.421  0.00  0.00    -0.250 OA
BRANCH   9  11
ATOM     11  O2  UNL     1       0.338   4.485  -7.310  0.00  0.00    -0.480 OA
ATOM     12  H18 UNL     1      -0.606   4.520  -7.573  0.00  0.00    +0.295 HD
ENDBRANCH   9  11
ENDBRANCH   7   9
ENDBRANCH   4   7
BRANCH   1  13
ATOM     13  C4  UNL     1      -2.794  -1.279  -6.444  0.00  0.00    +0.038 C 
BRANCH  13  15
ATOM     14  C1  UNL     1      -3.492  -0.615  -8.765  0.00  0.00    +0.007 C 
ATOM     15  C2  UNL     1      -3.989  -0.925  -7.351  0.00  0.00    -0.013 C 
ATOM     16  C3  UNL     1      -5.022  -2.052  -7.403  0.00  0.00    +0.007 C 
ENDBRANCH  13  15
ENDBRANCH   1  13
TORSDOF 5
ENDMDL
