MODEL 3
REMARK VINA RESULT:    -0.000     14.816     15.683
REMARK INTER + INTRA:          -0.141
REMARK INTER:                   0.000
REMARK INTRA:                  -0.141
REMARK UNBOUND:                -0.141
REMARK  Name = /tmp/bindforge_docking_809efb75-dc61-4263-b324-ae7058e65dcb/ligand_d17e0cb4.pdb
REMARK  3 active torsions:
REMARK  status: ('A' for Active; 'I' for Inactive)
REMARK    1  A    between atoms: C4_4  and  C7_7
REMARK    2  A    between atoms: C7_7  and  C8_8
REMARK    3  A    between atoms: C8_8  and  O2_10
REMARK                            x       y       z     vdW  Elec       q    Type
REMARK                         _______ _______ _______ _____ _____    ______ ____
ROOT
ATOM      1  C1  UNL     1      -4.918  -2.134  -1.973  0.00  0.00    +0.000 A 
ATOM      2  C2  UNL     1      -4.032  -2.614  -1.011  0.00  0.00    +0.000 A 
ATOM      3  C3  UNL     1      -3.961  -3.982  -0.745  0.00  0.00    +0.004 A 
ATOM      4  C4  UNL     1      -4.781  -4.884  -1.436  0.00  0.00    -0.037 A 
ATOM      5  C5  UNL     1      -5.663  -4.392  -2.410  0.00  0.00    +0.004 A 
ATOM      6  C6  UNL     1      -5.732  -3.023  -2.673  0.00  0.00    +0.000 A 
ENDROOT
BRANCH   4   7
ATOM      7  C7  UNL     1      -4.697  -6.365  -1.157  0.00  0.00    +0.155 C 
BRANCH   7   8
ATOM      8  C8  UNL     1      -4.391  -7.204  -2.374  0.00  0.00    +0.309 C 
ATOM      9  O1  UNL     1      -5.099  -8.024  -2.931  0.00  0.00    -0.251 OA
BRANCH   8  10
ATOM     10  O2  UNL     1      -3.149  -6.958  -2.849  0.00  0.00    -0.480 OA
ATOM     11  H8  UNL     1      -3.282  -6.905  -3.819  0.00  0.00    +0.295 HD
ENDBRANCH   8  10
ENDBRANCH   7   8
ENDBRANCH   4   7
TORSDOF 3
ENDMDL
