MODEL 7
REMARK VINA RESULT:     0.000     11.045     11.322
REMARK INTER + INTRA:           0.000
REMARK INTER:                   0.000
REMARK INTRA:                   0.000
REMARK UNBOUND:                 0.000
REMARK  Name = /tmp/bindforge_docking_6346f98e-91fc-4a31-a812-adec63356f7d/ligand_7ed3ffcd.pdb
REMARK  3 active torsions:
REMARK  status: ('A' for Active; 'I' for Inactive)
REMARK    1  A    between atoms: C1_1  and  C2_2
REMARK    2  A    between atoms: C1_1  and  N1_5
REMARK    3  A    between atoms: C2_2  and  O2_4
REMARK                            x       y       z     vdW  Elec       q    Type
REMARK                         _______ _______ _______ _____ _____    ______ ____
ROOT
ATOM      1  C1  UNL     1       9.191   4.394  -1.243  0.00  0.00    +0.199 C 
ENDROOT
BRANCH   1   2
ATOM      2  N1  UNL     1       7.935   4.304  -0.476  0.00  0.00    -0.321 NA
ATOM      3  H4  UNL     1       7.936   3.416   0.031  0.00  0.00    +0.119 HD
ATOM      4  H5  UNL     1       7.164   4.207  -1.141  0.00  0.00    +0.119 HD
ENDBRANCH   1   2
BRANCH   1   5
ATOM      5  C2  UNL     1       9.022   5.276  -2.471  0.00  0.00    +0.319 C 
ATOM      6  O1  UNL     1       8.433   6.345  -2.527  0.00  0.00    -0.250 OA
BRANCH   5   7
ATOM      7  O2  UNL     1       9.610   4.758  -3.567  0.00  0.00    -0.480 OA
ATOM      8  H3  UNL     1       8.927   4.837  -4.265  0.00  0.00    +0.295 HD
ENDBRANCH   5   7
ENDBRANCH   1   5
TORSDOF 3
ENDMDL
