MODEL 7
REMARK VINA RESULT:     0.001      3.430      4.890
REMARK INTER + INTRA:          -0.729
REMARK INTER:                   0.000
REMARK INTRA:                  -0.729
REMARK UNBOUND:                -0.730
REMARK  Name = /tmp/bindforge_docking_1c827d14-e446-4db6-a833-638c220cdc2f/ligand_d6292fd7.pdb
REMARK  5 active torsions:
REMARK  status: ('A' for Active; 'I' for Inactive)
REMARK    1  A    between atoms: C1_1  and  C2_2
REMARK    2  A    between atoms: C2_2  and  O2_4
REMARK    3  A    between atoms: O2_4  and  C3_5
REMARK    4  A    between atoms: C8_10  and  C9_11
REMARK    5  A    between atoms: C9_11  and  O4_13
REMARK                            x       y       z     vdW  Elec       q    Type
REMARK                         _______ _______ _______ _____ _____    ______ ____
ROOT
ATOM      1  C3  UNL     1      -1.677  -3.933  -2.615  0.00  0.00    +0.146 A 
ATOM      2  C4  UNL     1      -2.932  -4.443  -2.964  0.00  0.00    +0.047 A 
ATOM      3  C5  UNL     1      -4.042  -4.142  -2.178  0.00  0.00    +0.004 A 
ATOM      4  C6  UNL     1      -3.895  -3.347  -1.041  0.00  0.00    +0.001 A 
ATOM      5  C7  UNL     1      -2.636  -2.855  -0.684  0.00  0.00    +0.018 A 
ATOM      6  C8  UNL     1      -1.507  -3.148  -1.465  0.00  0.00    +0.101 A 
ENDROOT
BRANCH   6   7
ATOM      7  C9  UNL     1      -0.160  -2.653  -1.075  0.00  0.00    +0.340 C 
ATOM      8  O3  UNL     1       0.480  -2.965  -0.089  0.00  0.00    -0.245 OA
BRANCH   7   9
ATOM      9  O4  UNL     1       0.337  -1.763  -1.956  0.00  0.00    -0.477 OA
ATOM     10  H8  UNL     1       1.239  -2.097  -2.141  0.00  0.00    +0.295 HD
ENDBRANCH   7   9
ENDBRANCH   6   7
BRANCH   1  11
ATOM     11  O2  UNL     1      -0.601  -4.297  -3.429  0.00  0.00    -0.425 OA
BRANCH  11  13
ATOM     12  C1  UNL     1      -0.539  -4.620  -5.758  0.00  0.00    +0.136 C 
ATOM     13  C2  UNL     1      -0.597  -3.619  -4.643  0.00  0.00    +0.309 C 
ATOM     14  O1  UNL     1      -0.652  -2.407  -4.804  0.00  0.00    -0.251 OA
ENDBRANCH  11  13
ENDBRANCH   1  11
TORSDOF 4
ENDMDL
