MODEL 4
REMARK VINA RESULT:     0.000      4.042      5.493
REMARK INTER + INTRA:          -0.598
REMARK INTER:                   0.000
REMARK INTRA:                  -0.598
REMARK UNBOUND:                -0.598
REMARK  Name = /tmp/bindforge_docking_85f42c74-3822-4c73-aa73-7f7500b3e001/ligand_1e342629.pdb
REMARK  8 active torsions:
REMARK  status: ('A' for Active; 'I' for Inactive)
REMARK    1  A    between atoms: C1_1  and  C2_2
REMARK    2  A    between atoms: C2_2  and  C3_3
REMARK    3  A    between atoms: C2_2  and  C4_4
REMARK    4  A    between atoms: C4_4  and  C5_5
REMARK    5  A    between atoms: C8_8  and  C11_11
REMARK    6  A    between atoms: C11_11  and  C12_12
REMARK    7  A    between atoms: C11_11  and  C13_13
REMARK    8  A    between atoms: C13_13  and  O2_15
REMARK                            x       y       z     vdW  Elec       q    Type
REMARK                         _______ _______ _______ _____ _____    ______ ____
ROOT
ATOM      1  C5  UNL     1       0.914  -1.758  -0.531  0.00  0.00    -0.047 A 
ATOM      2  C6  UNL     1       1.033  -2.725  -1.534  0.00  0.00    +0.004 A 
ATOM      3  C7  UNL     1       0.059  -3.717  -1.684  0.00  0.00    +0.005 A 
ATOM      4  C8  UNL     1      -1.055  -3.764  -0.834  0.00  0.00    -0.034 A 
ATOM      5  C9  UNL     1      -1.167  -2.794   0.173  0.00  0.00    +0.005 A 
ATOM      6  C10 UNL     1      -0.195  -1.801   0.321  0.00  0.00    +0.004 A 
ENDROOT
BRANCH   4   7
ATOM      7  C11 UNL     1      -2.134  -4.825  -0.984  0.00  0.00    +0.124 C 
ATOM      8  C12 UNL     1      -3.240  -4.664   0.060  0.00  0.00    +0.024 C 
BRANCH   7   9
ATOM      9  C13 UNL     1      -2.756  -4.864  -2.371  0.00  0.00    +0.312 C 
ATOM     10  O1  UNL     1      -2.663  -5.737  -3.216  0.00  0.00    -0.250 OA
BRANCH   9  11
ATOM     11  O2  UNL     1      -3.447  -3.736  -2.651  0.00  0.00    -0.480 OA
ATOM     12  H18 UNL     1      -4.365  -4.054  -2.772  0.00  0.00    +0.295 HD
ENDBRANCH   9  11
ENDBRANCH   7   9
ENDBRANCH   4   7
BRANCH   1  13
ATOM     13  C4  UNL     1       1.963  -0.683  -0.371  0.00  0.00    +0.038 C 
BRANCH  13  15
ATOM     14  C1  UNL     1       0.969   1.035  -1.911  0.00  0.00    +0.007 C 
ATOM     15  C2  UNL     1       2.194   0.158  -1.642  0.00  0.00    -0.013 C 
ATOM     16  C3  UNL     1       3.442   1.036  -1.529  0.00  0.00    +0.007 C 
ENDBRANCH  13  15
ENDBRANCH   1  13
TORSDOF 5
ENDMDL
