MODEL 2
REMARK VINA RESULT:    -0.000      3.778      7.885
REMARK INTER + INTRA:          -0.642
REMARK INTER:                   0.000
REMARK INTRA:                  -0.642
REMARK UNBOUND:                -0.641
REMARK  Name = /tmp/bindforge_docking_961ec898-9754-41d2-9bfb-eaa9ec109518/ligand_3888f3a0.pdb
REMARK  9 active torsions:
REMARK  status: ('A' for Active; 'I' for Inactive)
REMARK    1  A    between atoms: C1_1  and  C2_2
REMARK    2  A    between atoms: C3_3  and  O1_12
REMARK    3  A    between atoms: C6_6  and  C8_8
REMARK    4  A    between atoms: C8_8  and  C9_9
REMARK    5  A    between atoms: C8_8  and  C10_10
REMARK    6  A    between atoms: C8_8  and  C11_11
REMARK    7  A    between atoms: O1_12  and  C12_13
REMARK    8  A    between atoms: C12_13  and  C13_14
REMARK    9  A    between atoms: C13_14  and  O3_16
REMARK                            x       y       z     vdW  Elec       q    Type
REMARK                         _______ _______ _______ _____ _____    ______ ____
ROOT
ATOM      1  C1  UNL     1       5.499   2.902  -3.975  0.00  0.00    +0.047 C 
ATOM      2  C2  UNL     1       5.124   3.947  -2.959  0.00  0.00    -0.008 A 
ATOM      3  C3  UNL     1       5.018   3.619  -1.599  0.00  0.00    +0.124 A 
ATOM      4  C4  UNL     1       4.667   4.614  -0.689  0.00  0.00    +0.046 A 
ATOM      5  C5  UNL     1       4.418   5.925  -1.121  0.00  0.00    +0.008 A 
ATOM      6  C6  UNL     1       4.511   6.282  -2.473  0.00  0.00    -0.042 A 
ATOM      7  C7  UNL     1       4.870   5.265  -3.377  0.00  0.00    +0.011 A 
ENDROOT
BRANCH   6   8
ATOM      8  C8  UNL     1       4.243   7.710  -2.978  0.00  0.00    -0.013 C 
ATOM      9  C9  UNL     1       5.342   8.726  -2.593  0.00  0.00    +0.015 C 
ATOM     10  C10 UNL     1       2.914   8.229  -2.387  0.00  0.00    +0.015 C 
ATOM     11  C11 UNL     1       4.145   7.706  -4.520  0.00  0.00    +0.015 C 
ENDBRANCH   6   8
BRANCH   3  12
ATOM     12  O1  UNL     1       5.282   2.313  -1.285  0.00  0.00    -0.481 OA
BRANCH  12  13
ATOM     13  C12 UNL     1       4.281   1.559  -0.620  0.00  0.00    +0.349 C 
BRANCH  13  14
ATOM     14  C13 UNL     1       3.008   1.322  -1.415  0.00  0.00    +0.343 C 
ATOM     15  O2  UNL     1       2.934   0.741  -2.488  0.00  0.00    -0.247 OA
BRANCH  14  16
ATOM     16  O3  UNL     1       1.907   1.853  -0.849  0.00  0.00    -0.478 OA
ATOM     17  H18 UNL     1       1.847   1.422   0.028  0.00  0.00    +0.295 HD
ENDBRANCH  14  16
ENDBRANCH  13  14
ENDBRANCH  12  13
ENDBRANCH   3  12
TORSDOF 5
ENDMDL
