MODEL 3
REMARK VINA RESULT:     0.000     11.577     12.981
REMARK INTER + INTRA:          -0.730
REMARK INTER:                   0.000
REMARK INTRA:                  -0.730
REMARK UNBOUND:                -0.730
REMARK  Name = /tmp/bindforge_docking_b543ad0f-f013-4b3e-914b-f82674ab16e7/ligand_3b604c32.pdb
REMARK  5 active torsions:
REMARK  status: ('A' for Active; 'I' for Inactive)
REMARK    1  A    between atoms: C1_1  and  C2_2
REMARK    2  A    between atoms: C2_2  and  O2_4
REMARK    3  A    between atoms: O2_4  and  C3_5
REMARK    4  A    between atoms: C8_10  and  C9_11
REMARK    5  A    between atoms: C9_11  and  O4_13
REMARK                            x       y       z     vdW  Elec       q    Type
REMARK                         _______ _______ _______ _____ _____    ______ ____
ROOT
ATOM      1  C3  UNL     1       4.286   5.439   8.280  0.00  0.00    +0.146 A 
ATOM      2  C4  UNL     1       4.105   4.072   8.519  0.00  0.00    +0.047 A 
ATOM      3  C5  UNL     1       3.073   3.648   9.354  0.00  0.00    +0.004 A 
ATOM      4  C6  UNL     1       2.235   4.586   9.957  0.00  0.00    +0.001 A 
ATOM      5  C7  UNL     1       2.430   5.953   9.730  0.00  0.00    +0.018 A 
ATOM      6  C8  UNL     1       3.465   6.397   8.893  0.00  0.00    +0.101 A 
ENDROOT
BRANCH   6   7
ATOM      7  C9  UNL     1       3.696   7.849   8.671  0.00  0.00    +0.340 C 
ATOM      8  O3  UNL     1       4.054   8.670   9.494  0.00  0.00    -0.245 OA
BRANCH   7   9
ATOM      9  O4  UNL     1       3.460   8.220   7.397  0.00  0.00    -0.477 OA
ATOM     10  H8  UNL     1       3.106   7.408   6.979  0.00  0.00    +0.295 HD
ENDBRANCH   7   9
ENDBRANCH   6   7
BRANCH   1  11
ATOM     11  O2  UNL     1       5.356   5.797   7.457  0.00  0.00    -0.425 OA
BRANCH  11  13
ATOM     12  C1  UNL     1       6.216   4.693   5.566  0.00  0.00    +0.136 C 
ATOM     13  C2  UNL     1       5.106   5.541   6.113  0.00  0.00    +0.309 C 
ATOM     14  O1  UNL     1       4.138   5.916   5.466  0.00  0.00    -0.251 OA
ENDBRANCH  11  13
ENDBRANCH   1  11
TORSDOF 4
ENDMDL
