MODEL 2
REMARK VINA RESULT:     0.000      6.863      9.046
REMARK INTER + INTRA:          -0.377
REMARK INTER:                   0.000
REMARK INTRA:                  -0.377
REMARK UNBOUND:                -0.377
REMARK  Name = /tmp/bindforge_docking_d24c35cd-675b-417e-ae98-49aeefbd191c/ligand_4c2785dc.pdb
REMARK  4 active torsions:
REMARK  status: ('A' for Active; 'I' for Inactive)
REMARK    1  A    between atoms: C1_1  and  C2_2
REMARK    2  A    between atoms: C5_5  and  S1_8
REMARK    3  A    between atoms: S1_8  and  N1_11
REMARK    4  A    between atoms: N2_14  and  N3_15
REMARK                            x       y       z     vdW  Elec       q    Type
REMARK                         _______ _______ _______ _____ _____    ______ ____
ROOT
ATOM      1  N1  UNL     1       1.468   1.966   0.487  0.00  0.00    -0.168 N 
ATOM      2  C8  UNL     1       2.499   2.869   0.236  0.00  0.00    +0.333 C 
ATOM      3  O3  UNL     1       2.864   3.163  -0.890  0.00  0.00    -0.250 OA
ATOM      4  N2  UNL     1       3.045   3.368   1.404  0.00  0.00    -0.231 N 
ATOM      5  H8  UNL     1       1.181   1.747   1.428  0.00  0.00    +0.178 HD
ATOM      6  H9  UNL     1       2.696   3.058   2.300  0.00  0.00    +0.171 HD
ENDROOT
BRANCH   4   7
ATOM      7  N3  UNL     1       4.095   4.305   1.362  0.00  0.00    -0.226 NA
ATOM      8  C9  UNL     1       5.158   3.958   2.315  0.00  0.00    +0.105 C 
ATOM      9  C10 UNL     1       6.335   4.926   2.205  0.00  0.00    +0.017 C 
ATOM     10  C11 UNL     1       5.884   6.373   2.376  0.00  0.00    +0.003 C 
ATOM     11  C12 UNL     1       4.739   6.690   1.420  0.00  0.00    +0.017 C 
ATOM     12  C13 UNL     1       3.604   5.675   1.552  0.00  0.00    +0.105 C 
ENDBRANCH   4   7
BRANCH   1  13
ATOM     13  S1  UNL     1       0.636   1.202  -0.738  0.00  0.00    +0.076 S 
ATOM     14  O1  UNL     1       1.516   0.268  -1.403  0.00  0.00    -0.150 OA
ATOM     15  O2  UNL     1      -0.163   2.173  -1.452  0.00  0.00    -0.150 OA
BRANCH  13  20
ATOM     16  C1  UNL     1      -3.243  -2.098   2.580  0.00  0.00    +0.044 C 
ATOM     17  C2  UNL     1      -2.264  -1.307   1.761  0.00  0.00    -0.050 A 
ATOM     18  C3  UNL     1      -1.337  -0.462   2.389  0.00  0.00    +0.005 A 
ATOM     19  C4  UNL     1      -0.452   0.305   1.630  0.00  0.00    +0.029 A 
ATOM     20  C5  UNL     1      -0.500   0.228   0.237  0.00  0.00    +0.109 A 
ATOM     21  C6  UNL     1      -1.436  -0.587  -0.405  0.00  0.00    +0.029 A 
ATOM     22  C7  UNL     1      -2.317  -1.352   0.361  0.00  0.00    +0.005 A 
ENDBRANCH  13  20
ENDBRANCH   1  13
TORSDOF 3
ENDMDL
