MODEL 7
REMARK VINA RESULT:     0.001      7.795      9.080
REMARK INTER + INTRA:          -0.729
REMARK INTER:                   0.000
REMARK INTRA:                  -0.729
REMARK UNBOUND:                -0.730
REMARK  Name = /tmp/bindforge_docking_f8e876e0-5b31-4790-b097-d8defbdb7ed2/ligand_6e783504.pdb
REMARK  5 active torsions:
REMARK  status: ('A' for Active; 'I' for Inactive)
REMARK    1  A    between atoms: C1_1  and  C2_2
REMARK    2  A    between atoms: C2_2  and  O2_4
REMARK    3  A    between atoms: O2_4  and  C3_5
REMARK    4  A    between atoms: C8_10  and  C9_11
REMARK    5  A    between atoms: C9_11  and  O4_13
REMARK                            x       y       z     vdW  Elec       q    Type
REMARK                         _______ _______ _______ _____ _____    ______ ____
ROOT
ATOM      1  C3  UNL     1      -0.400  -2.697  -5.615  0.00  0.00    +0.146 A 
ATOM      2  C4  UNL     1       0.685  -1.835  -5.813  0.00  0.00    +0.047 A 
ATOM      3  C5  UNL     1       1.113  -1.014  -4.771  0.00  0.00    +0.004 A 
ATOM      4  C6  UNL     1       0.452  -1.046  -3.543  0.00  0.00    +0.001 A 
ATOM      5  C7  UNL     1      -0.644  -1.895  -3.355  0.00  0.00    +0.018 A 
ATOM      6  C8  UNL     1      -1.088  -2.728  -4.393  0.00  0.00    +0.101 A 
ENDROOT
BRANCH   6   7
ATOM      7  C9  UNL     1      -2.270  -3.611  -4.210  0.00  0.00    +0.340 C 
ATOM      8  O3  UNL     1      -3.424  -3.268  -4.034  0.00  0.00    -0.245 OA
BRANCH   7   9
ATOM      9  O4  UNL     1      -1.948  -4.919  -4.249  0.00  0.00    -0.477 OA
ATOM     10  H8  UNL     1      -2.773  -5.353  -4.550  0.00  0.00    +0.295 HD
ENDBRANCH   7   9
ENDBRANCH   6   7
BRANCH   1  11
ATOM     11  O2  UNL     1      -0.796  -3.472  -6.708  0.00  0.00    -0.425 OA
BRANCH  11  13
ATOM     12  C1  UNL     1       0.522  -4.468  -8.382  0.00  0.00    +0.136 C 
ATOM     13  C2  UNL     1       0.070  -4.532  -6.954  0.00  0.00    +0.309 C 
ATOM     14  O1  UNL     1       0.436  -5.378  -6.149  0.00  0.00    -0.251 OA
ENDBRANCH  11  13
ENDBRANCH   1  11
TORSDOF 4
ENDMDL
