MODEL 2
REMARK VINA RESULT:     0.000     10.387     13.173
REMARK INTER + INTRA:          -0.730
REMARK INTER:                   0.000
REMARK INTRA:                  -0.730
REMARK UNBOUND:                -0.730
REMARK  Name = /tmp/bindforge_docking_366e04ba-33d9-4203-9467-c92c71645035/ligand_eee2629b.pdb
REMARK  5 active torsions:
REMARK  status: ('A' for Active; 'I' for Inactive)
REMARK    1  A    between atoms: C1_1  and  C2_2
REMARK    2  A    between atoms: C2_2  and  O2_4
REMARK    3  A    between atoms: O2_4  and  C3_5
REMARK    4  A    between atoms: C8_10  and  C9_11
REMARK    5  A    between atoms: C9_11  and  O4_13
REMARK                            x       y       z     vdW  Elec       q    Type
REMARK                         _______ _______ _______ _____ _____    ______ ____
ROOT
ATOM      1  C3  UNL     1       0.802   3.209   6.838  0.00  0.00    +0.146 A 
ATOM      2  C4  UNL     1       1.980   2.533   6.504  0.00  0.00    +0.047 A 
ATOM      3  C5  UNL     1       2.923   2.258   7.493  0.00  0.00    +0.004 A 
ATOM      4  C6  UNL     1       2.694   2.670   8.806  0.00  0.00    +0.001 A 
ATOM      5  C7  UNL     1       1.524   3.362   9.134  0.00  0.00    +0.018 A 
ATOM      6  C8  UNL     1       0.565   3.647   8.150  0.00  0.00    +0.101 A 
ENDROOT
BRANCH   6   7
ATOM      7  C9  UNL     1      -0.668   4.408   8.485  0.00  0.00    +0.340 C 
ATOM      8  O3  UNL     1      -0.740   5.568   8.845  0.00  0.00    -0.245 OA
BRANCH   7   9
ATOM      9  O4  UNL     1      -1.784   3.666   8.355  0.00  0.00    -0.477 OA
ATOM     10  H8  UNL     1      -2.476   4.206   8.791  0.00  0.00    +0.295 HD
ENDBRANCH   7   9
ENDBRANCH   6   7
BRANCH   1  11
ATOM     11  O2  UNL     1      -0.087   3.478   5.795  0.00  0.00    -0.425 OA
BRANCH  11  13
ATOM     12  C1  UNL     1      -0.607   2.174   3.908  0.00  0.00    +0.136 C 
ATOM     13  C2  UNL     1      -0.789   2.349   5.386  0.00  0.00    +0.309 C 
ATOM     14  O1  UNL     1      -1.438   1.595   6.099  0.00  0.00    -0.251 OA
ENDBRANCH  11  13
ENDBRANCH   1  11
TORSDOF 4
ENDMDL
