MODEL 8
REMARK VINA RESULT:     0.000     10.469     11.973
REMARK INTER + INTRA:          -0.729
REMARK INTER:                   0.000
REMARK INTRA:                  -0.729
REMARK UNBOUND:                -0.729
REMARK  Name = /tmp/bindforge_docking_9d79cdd4-c013-4c61-900a-f0d1f6bd7daa/ligand_25ba65cd.pdb
REMARK  5 active torsions:
REMARK  status: ('A' for Active; 'I' for Inactive)
REMARK    1  A    between atoms: C1_1  and  C2_2
REMARK    2  A    between atoms: C2_2  and  O2_4
REMARK    3  A    between atoms: O2_4  and  C3_5
REMARK    4  A    between atoms: C8_10  and  C9_11
REMARK    5  A    between atoms: C9_11  and  O4_13
REMARK                            x       y       z     vdW  Elec       q    Type
REMARK                         _______ _______ _______ _____ _____    ______ ____
ROOT
ATOM      1  C3  UNL     1       2.498  -0.364   2.734  0.00  0.00    +0.146 A 
ATOM      2  C4  UNL     1       2.394   0.827   3.462  0.00  0.00    +0.047 A 
ATOM      3  C5  UNL     1       1.679   0.845   4.658  0.00  0.00    +0.004 A 
ATOM      4  C6  UNL     1       1.061  -0.319   5.117  0.00  0.00    +0.001 A 
ATOM      5  C7  UNL     1       1.151  -1.503   4.378  0.00  0.00    +0.018 A 
ATOM      6  C8  UNL     1       1.867  -1.538   3.171  0.00  0.00    +0.101 A 
ENDROOT
BRANCH   6   7
ATOM      7  C9  UNL     1       1.942  -2.785   2.365  0.00  0.00    +0.340 C 
ATOM      8  O3  UNL     1       1.025  -3.352   1.801  0.00  0.00    -0.245 OA
BRANCH   7   9
ATOM      9  O4  UNL     1       3.192  -3.285   2.303  0.00  0.00    -0.477 OA
ATOM     10  H8  UNL     1       3.698  -2.725   2.927  0.00  0.00    +0.295 HD
ENDBRANCH   7   9
ENDBRANCH   6   7
BRANCH   1  11
ATOM     11  O2  UNL     1       3.204  -0.306   1.530  0.00  0.00    -0.425 OA
BRANCH  11  13
ATOM     12  C1  UNL     1       5.115   0.951   0.984  0.00  0.00    +0.136 C 
ATOM     13  C2  UNL     1       4.580  -0.240   1.720  0.00  0.00    +0.309 C 
ATOM     14  O1  UNL     1       5.263  -1.004   2.390  0.00  0.00    -0.251 OA
ENDBRANCH  11  13
ENDBRANCH   1  11
TORSDOF 4
ENDMDL
