MODEL 9
REMARK VINA RESULT:     0.001      9.143     10.462
REMARK INTER + INTRA:          -0.729
REMARK INTER:                   0.000
REMARK INTRA:                  -0.729
REMARK UNBOUND:                -0.730
REMARK  Name = /tmp/bindforge_docking_3e760bd8-c96f-47fd-9504-fd77fc4f2169/ligand_3bcbf6af.pdb
REMARK  5 active torsions:
REMARK  status: ('A' for Active; 'I' for Inactive)
REMARK    1  A    between atoms: C1_1  and  C2_2
REMARK    2  A    between atoms: C2_2  and  O2_4
REMARK    3  A    between atoms: O2_4  and  C3_5
REMARK    4  A    between atoms: C8_10  and  C9_11
REMARK    5  A    between atoms: C9_11  and  O4_13
REMARK                            x       y       z     vdW  Elec       q    Type
REMARK                         _______ _______ _______ _____ _____    ______ ____
ROOT
ATOM      1  C3  UNL     1       3.980   7.562  -7.075  0.00  0.00    +0.146 A 
ATOM      2  C4  UNL     1       4.153   8.318  -5.910  0.00  0.00    +0.047 A 
ATOM      3  C5  UNL     1       3.284   8.139  -4.835  0.00  0.00    +0.004 A 
ATOM      4  C6  UNL     1       2.241   7.218  -4.931  0.00  0.00    +0.001 A 
ATOM      5  C7  UNL     1       2.060   6.476  -6.103  0.00  0.00    +0.018 A 
ATOM      6  C8  UNL     1       2.926   6.645  -7.194  0.00  0.00    +0.101 A 
ENDROOT
BRANCH   6   7
ATOM      7  C9  UNL     1       2.722   5.882  -8.454  0.00  0.00    +0.340 C 
ATOM      8  O3  UNL     1       1.785   5.973  -9.225  0.00  0.00    -0.245 OA
BRANCH   7   9
ATOM      9  O4  UNL     1       3.723   5.014  -8.699  0.00  0.00    -0.477 OA
ATOM     10  H8  UNL     1       3.774   4.987  -9.677  0.00  0.00    +0.295 HD
ENDBRANCH   7   9
ENDBRANCH   6   7
BRANCH   1  11
ATOM     11  O2  UNL     1       4.868   7.811  -8.124  0.00  0.00    -0.425 OA
BRANCH  11  13
ATOM     12  C1  UNL     1       7.155   8.357  -8.043  0.00  0.00    +0.136 C 
ATOM     13  C2  UNL     1       6.130   7.272  -7.897  0.00  0.00    +0.309 C 
ATOM     14  O1  UNL     1       6.386   6.111  -7.604  0.00  0.00    -0.251 OA
ENDBRANCH  11  13
ENDBRANCH   1  11
TORSDOF 4
ENDMDL
