MODEL 5
REMARK VINA RESULT:    -0.000      5.247      6.964
REMARK INTER + INTRA:          -0.730
REMARK INTER:                   0.000
REMARK INTRA:                  -0.730
REMARK UNBOUND:                -0.730
REMARK  Name = /tmp/bindforge_docking_68596179-1fb9-47ff-b18e-febccc65ad33/ligand_d1b4f9d2.pdb
REMARK  5 active torsions:
REMARK  status: ('A' for Active; 'I' for Inactive)
REMARK    1  A    between atoms: C1_1  and  C2_2
REMARK    2  A    between atoms: C2_2  and  O2_4
REMARK    3  A    between atoms: O2_4  and  C3_5
REMARK    4  A    between atoms: C8_10  and  C9_11
REMARK    5  A    between atoms: C9_11  and  O4_13
REMARK                            x       y       z     vdW  Elec       q    Type
REMARK                         _______ _______ _______ _____ _____    ______ ____
ROOT
ATOM      1  C3  UNL     1       6.401  -4.133   4.009  0.00  0.00    +0.146 A 
ATOM      2  C4  UNL     1       6.638  -5.409   4.533  0.00  0.00    +0.047 A 
ATOM      3  C5  UNL     1       7.671  -5.598   5.448  0.00  0.00    +0.004 A 
ATOM      4  C6  UNL     1       8.471  -4.519   5.828  0.00  0.00    +0.001 A 
ATOM      5  C7  UNL     1       8.243  -3.249   5.289  0.00  0.00    +0.018 A 
ATOM      6  C8  UNL     1       7.206  -3.041   4.365  0.00  0.00    +0.101 A 
ENDROOT
BRANCH   6   7
ATOM      7  C9  UNL     1       6.977  -1.700   3.766  0.00  0.00    +0.340 C 
ATOM      8  O3  UNL     1       7.720  -1.092   3.019  0.00  0.00    -0.245 OA
BRANCH   7   9
ATOM      9  O4  UNL     1       5.799  -1.163   4.139  0.00  0.00    -0.477 OA
ATOM     10  H8  UNL     1       5.899  -0.212   3.928  0.00  0.00    +0.295 HD
ENDBRANCH   7   9
ENDBRANCH   6   7
BRANCH   1  11
ATOM     11  O2  UNL     1       5.368  -4.018   3.075  0.00  0.00    -0.425 OA
BRANCH  11  13
ATOM     12  C1  UNL     1       3.304  -5.144   2.990  0.00  0.00    +0.136 C 
ATOM     13  C2  UNL     1       4.108  -4.070   3.661  0.00  0.00    +0.309 C 
ATOM     14  O1  UNL     1       3.704  -3.379   4.587  0.00  0.00    -0.251 OA
ENDBRANCH  11  13
ENDBRANCH   1  11
TORSDOF 4
ENDMDL
