MODEL 7
REMARK VINA RESULT:     0.000      8.427      9.919
REMARK INTER + INTRA:          -0.141
REMARK INTER:                   0.000
REMARK INTRA:                  -0.141
REMARK UNBOUND:                -0.141
REMARK  Name = /tmp/bindforge_docking_2ec5c8af-c38e-41dd-b776-c04cb87561df/ligand_a50034be.pdb
REMARK  3 active torsions:
REMARK  status: ('A' for Active; 'I' for Inactive)
REMARK    1  A    between atoms: C4_4  and  C7_7
REMARK    2  A    between atoms: C7_7  and  C8_8
REMARK    3  A    between atoms: C8_8  and  O2_10
REMARK                            x       y       z     vdW  Elec       q    Type
REMARK                         _______ _______ _______ _____ _____    ______ ____
ROOT
ATOM      1  C1  UNL     1      -0.021  -0.545   2.871  0.00  0.00    +0.000 A 
ATOM      2  C2  UNL     1       0.135  -1.442   3.925  0.00  0.00    +0.000 A 
ATOM      3  C3  UNL     1       1.315  -1.447   4.671  0.00  0.00    +0.004 A 
ATOM      4  C4  UNL     1       2.353  -0.558   4.365  0.00  0.00    -0.037 A 
ATOM      5  C5  UNL     1       2.183   0.348   3.307  0.00  0.00    +0.004 A 
ATOM      6  C6  UNL     1       1.002   0.351   2.562  0.00  0.00    +0.000 A 
ENDROOT
BRANCH   4   7
ATOM      7  C7  UNL     1       3.625  -0.555   5.177  0.00  0.00    +0.155 C 
BRANCH   7   8
ATOM      8  C8  UNL     1       3.959   0.781   5.794  0.00  0.00    +0.309 C 
ATOM      9  O1  UNL     1       4.898   1.519   5.551  0.00  0.00    -0.251 OA
BRANCH   8  10
ATOM     10  O2  UNL     1       3.051   1.138   6.730  0.00  0.00    -0.480 OA
ATOM     11  H8  UNL     1       2.834   0.291   7.174  0.00  0.00    +0.295 HD
ENDBRANCH   8  10
ENDBRANCH   7   8
ENDBRANCH   4   7
TORSDOF 3
ENDMDL
