MODEL 6
REMARK VINA RESULT:     0.000      3.682      3.764
REMARK INTER + INTRA:           0.000
REMARK INTER:                   0.000
REMARK INTRA:                   0.000
REMARK UNBOUND:                 0.000
REMARK  Name = /tmp/bindforge_docking_fd9917f5-bd65-4c9b-a272-07d7bd292952/ligand_e22d252b.pdb
REMARK  3 active torsions:
REMARK  status: ('A' for Active; 'I' for Inactive)
REMARK    1  A    between atoms: C1_1  and  C2_2
REMARK    2  A    between atoms: C1_1  and  N1_5
REMARK    3  A    between atoms: C2_2  and  O2_4
REMARK                            x       y       z     vdW  Elec       q    Type
REMARK                         _______ _______ _______ _____ _____    ______ ____
ROOT
ATOM      1  C1  UNL     1      -6.549   4.271  -3.246  0.00  0.00    +0.199 C 
ENDROOT
BRANCH   1   2
ATOM      2  N1  UNL     1      -5.566   3.253  -2.828  0.00  0.00    -0.321 NA
ATOM      3  H4  UNL     1      -5.863   2.879  -1.924  0.00  0.00    +0.119 HD
ATOM      4  H5  UNL     1      -4.686   3.730  -2.620  0.00  0.00    +0.119 HD
ENDBRANCH   1   2
BRANCH   1   5
ATOM      5  C2  UNL     1      -7.717   4.337  -2.272  0.00  0.00    +0.319 C 
ATOM      6  O1  UNL     1      -7.656   4.272  -1.054  0.00  0.00    -0.250 OA
BRANCH   5   7
ATOM      7  O2  UNL     1      -8.903   4.483  -2.894  0.00  0.00    -0.480 OA
ATOM      8  H3  UNL     1      -8.841   5.362  -3.323  0.00  0.00    +0.295 HD
ENDBRANCH   5   7
ENDBRANCH   1   5
TORSDOF 3
ENDMDL
