MODEL 1
REMARK VINA RESULT:     0.000      0.000      0.000
REMARK INTER + INTRA:           0.000
REMARK INTER:                   0.000
REMARK INTRA:                   0.000
REMARK UNBOUND:                 0.000
REMARK  Name = /tmp/bindforge_docking_f8e7c994-6d54-45fd-a006-f934fc2938ac/ligand_18a190c0.pdb
REMARK  3 active torsions:
REMARK  status: ('A' for Active; 'I' for Inactive)
REMARK    1  A    between atoms: C1_1  and  C2_2
REMARK    2  A    between atoms: C1_1  and  N1_5
REMARK    3  A    between atoms: C2_2  and  O2_4
REMARK                            x       y       z     vdW  Elec       q    Type
REMARK                         _______ _______ _______ _____ _____    ______ ____
ROOT
ATOM      1  C1  UNL     1       8.486   3.641   6.484  0.00  0.00    +0.199 C 
ENDROOT
BRANCH   1   2
ATOM      2  N1  UNL     1       8.538   3.484   7.950  0.00  0.00    -0.321 NA
ATOM      3  H4  UNL     1       7.850   4.119   8.361  0.00  0.00    +0.119 HD
ATOM      4  H5  UNL     1       9.435   3.849   8.276  0.00  0.00    +0.119 HD
ENDBRANCH   1   2
BRANCH   1   5
ATOM      5  C2  UNL     1       7.217   3.026   5.911  0.00  0.00    +0.319 C 
ATOM      6  O1  UNL     1       6.446   3.548   5.120  0.00  0.00    -0.250 OA
BRANCH   5   7
ATOM      7  O2  UNL     1       6.992   1.780   6.369  0.00  0.00    -0.480 OA
ATOM      8  H3  UNL     1       7.562   1.711   7.164  0.00  0.00    +0.295 HD
ENDBRANCH   5   7
ENDBRANCH   1   5
TORSDOF 3
ENDMDL
