MODEL 6
REMARK VINA RESULT:     0.000     17.571     18.184
REMARK INTER + INTRA:          -0.141
REMARK INTER:                   0.000
REMARK INTRA:                  -0.141
REMARK UNBOUND:                -0.141
REMARK  Name = /tmp/bindforge_docking_809efb75-dc61-4263-b324-ae7058e65dcb/ligand_d17e0cb4.pdb
REMARK  3 active torsions:
REMARK  status: ('A' for Active; 'I' for Inactive)
REMARK    1  A    between atoms: C4_4  and  C7_7
REMARK    2  A    between atoms: C7_7  and  C8_8
REMARK    3  A    between atoms: C8_8  and  O2_10
REMARK                            x       y       z     vdW  Elec       q    Type
REMARK                         _______ _______ _______ _____ _____    ______ ____
ROOT
ATOM      1  C1  UNL     1      -6.762  -3.876  -3.982  0.00  0.00    +0.000 A 
ATOM      2  C2  UNL     1      -7.842  -3.231  -3.386  0.00  0.00    +0.000 A 
ATOM      3  C3  UNL     1      -7.756  -1.876  -3.060  0.00  0.00    +0.004 A 
ATOM      4  C4  UNL     1      -6.584  -1.155  -3.324  0.00  0.00    -0.037 A 
ATOM      5  C5  UNL     1      -5.504  -1.812  -3.933  0.00  0.00    +0.004 A 
ATOM      6  C6  UNL     1      -5.593  -3.167  -4.257  0.00  0.00    +0.000 A 
ENDROOT
BRANCH   4   7
ATOM      7  C7  UNL     1      -6.493   0.312  -2.982  0.00  0.00    +0.155 C 
BRANCH   7   8
ATOM      8  C8  UNL     1      -6.153   1.197  -4.156  0.00  0.00    +0.309 C 
ATOM      9  O1  UNL     1      -5.148   1.861  -4.344  0.00  0.00    -0.251 OA
BRANCH   8  10
ATOM     10  O2  UNL     1      -7.143   1.205  -5.077  0.00  0.00    -0.480 OA
ATOM     11  H8  UNL     1      -7.960   1.176  -4.536  0.00  0.00    +0.295 HD
ENDBRANCH   8  10
ENDBRANCH   7   8
ENDBRANCH   4   7
TORSDOF 3
ENDMDL
