MODEL 7
REMARK VINA RESULT:     0.000      4.936      5.318
REMARK INTER + INTRA:           0.000
REMARK INTER:                   0.000
REMARK INTRA:                   0.000
REMARK UNBOUND:                 0.000
REMARK  Name = /tmp/bindforge_docking_e7faa7d1-a6b1-4d85-9ed3-23c9d9d6b59f/ligand_380a1b5a.pdb
REMARK  3 active torsions:
REMARK  status: ('A' for Active; 'I' for Inactive)
REMARK    1  A    between atoms: C1_1  and  C2_2
REMARK    2  A    between atoms: C1_1  and  N1_5
REMARK    3  A    between atoms: C2_2  and  O2_4
REMARK                            x       y       z     vdW  Elec       q    Type
REMARK                         _______ _______ _______ _____ _____    ______ ____
ROOT
ATOM      1  C1  UNL     1      -7.321   0.860   8.431  0.00  0.00    +0.199 C 
ENDROOT
BRANCH   1   2
ATOM      2  N1  UNL     1      -7.495   0.014   7.235  0.00  0.00    -0.321 NA
ATOM      3  H4  UNL     1      -6.756   0.251   6.569  0.00  0.00    +0.119 HD
ATOM      4  H5  UNL     1      -8.354   0.305   6.762  0.00  0.00    +0.119 HD
ENDBRANCH   1   2
BRANCH   1   5
ATOM      5  C2  UNL     1      -6.136   1.801   8.269  0.00  0.00    +0.319 C 
ATOM      6  O1  UNL     1      -4.975   1.482   8.057  0.00  0.00    -0.250 OA
BRANCH   5   7
ATOM      7  O2  UNL     1      -6.482   3.097   8.384  0.00  0.00    -0.480 OA
ATOM      8  H3  UNL     1      -5.630   3.579   8.329  0.00  0.00    +0.295 HD
ENDBRANCH   5   7
ENDBRANCH   1   5
TORSDOF 3
ENDMDL
