MODEL 7
REMARK VINA RESULT:     0.001      3.500      4.929
REMARK INTER + INTRA:          -0.729
REMARK INTER:                   0.000
REMARK INTRA:                  -0.729
REMARK UNBOUND:                -0.730
REMARK  Name = /tmp/bindforge_docking_31685138-518f-47f5-8f04-b8d48f12ba79/ligand_803e0acc.pdb
REMARK  5 active torsions:
REMARK  status: ('A' for Active; 'I' for Inactive)
REMARK    1  A    between atoms: C1_1  and  C2_2
REMARK    2  A    between atoms: C2_2  and  O2_4
REMARK    3  A    between atoms: O2_4  and  C3_5
REMARK    4  A    between atoms: C8_10  and  C9_11
REMARK    5  A    between atoms: C9_11  and  O4_13
REMARK                            x       y       z     vdW  Elec       q    Type
REMARK                         _______ _______ _______ _____ _____    ______ ____
ROOT
ATOM      1  C3  UNL     1      -0.463  -6.142  -2.156  0.00  0.00    +0.146 A 
ATOM      2  C4  UNL     1      -0.189  -6.762  -3.380  0.00  0.00    +0.047 A 
ATOM      3  C5  UNL     1       0.533  -6.077  -4.355  0.00  0.00    +0.004 A 
ATOM      4  C6  UNL     1       0.968  -4.774  -4.111  0.00  0.00    +0.001 A 
ATOM      5  C7  UNL     1       0.677  -4.150  -2.893  0.00  0.00    +0.018 A 
ATOM      6  C8  UNL     1      -0.050  -4.826  -1.901  0.00  0.00    +0.101 A 
ENDROOT
BRANCH   6   7
ATOM      7  C9  UNL     1      -0.388  -4.159  -0.616  0.00  0.00    +0.340 C 
ATOM      8  O3  UNL     1      -1.122  -3.201  -0.457  0.00  0.00    -0.245 OA
BRANCH   7   9
ATOM      9  O4  UNL     1       0.224  -4.730   0.439  0.00  0.00    -0.477 OA
ATOM     10  H8  UNL     1      -0.359  -4.511   1.194  0.00  0.00    +0.295 HD
ENDBRANCH   7   9
ENDBRANCH   6   7
BRANCH   1  11
ATOM     11  O2  UNL     1      -1.216  -6.874  -1.235  0.00  0.00    -0.425 OA
BRANCH  11  13
ATOM     12  C1  UNL     1      -1.198  -9.184  -0.796  0.00  0.00    +0.136 C 
ATOM     13  C2  UNL     1      -0.479  -7.880  -0.620  0.00  0.00    +0.309 C 
ATOM     14  O1  UNL     1       0.593  -7.752  -0.043  0.00  0.00    -0.251 OA
ENDBRANCH  11  13
ENDBRANCH   1  11
TORSDOF 4
ENDMDL
