MODEL 8
REMARK VINA RESULT:     0.000     13.334     13.726
REMARK INTER + INTRA:           0.000
REMARK INTER:                   0.000
REMARK INTRA:                   0.000
REMARK UNBOUND:                 0.000
REMARK  Name = /tmp/bindforge_docking_57f742c7-e041-4c39-9436-d7978010b3bc/ligand_1b8510f5.pdb
REMARK  3 active torsions:
REMARK  status: ('A' for Active; 'I' for Inactive)
REMARK    1  A    between atoms: C1_1  and  C2_2
REMARK    2  A    between atoms: C1_1  and  N1_5
REMARK    3  A    between atoms: C2_2  and  O2_4
REMARK                            x       y       z     vdW  Elec       q    Type
REMARK                         _______ _______ _______ _____ _____    ______ ____
ROOT
ATOM      1  C1  UNL     1      -7.886  -1.600   5.876  0.00  0.00    +0.199 C 
ENDROOT
BRANCH   1   2
ATOM      2  N1  UNL     1      -8.896  -1.504   4.806  0.00  0.00    -0.321 NA
ATOM      3  H4  UNL     1      -9.074  -0.512   4.627  0.00  0.00    +0.119 HD
ATOM      4  H5  UNL     1      -9.785  -1.849   5.177  0.00  0.00    +0.119 HD
ENDBRANCH   1   2
BRANCH   1   5
ATOM      5  C2  UNL     1      -8.221  -2.723   6.847  0.00  0.00    +0.319 C 
ATOM      6  O1  UNL     1      -9.116  -3.546   6.730  0.00  0.00    -0.250 OA
BRANCH   5   7
ATOM      7  O2  UNL     1      -7.402  -2.745   7.917  0.00  0.00    -0.480 OA
ATOM      8  H3  UNL     1      -7.620  -3.588   8.367  0.00  0.00    +0.295 HD
ENDBRANCH   5   7
ENDBRANCH   1   5
TORSDOF 3
ENDMDL
