MODEL 6
REMARK VINA RESULT:     0.000     12.757     13.786
REMARK INTER + INTRA:          -0.377
REMARK INTER:                   0.000
REMARK INTRA:                  -0.377
REMARK UNBOUND:                -0.377
REMARK  Name = /tmp/bindforge_docking_d24c35cd-675b-417e-ae98-49aeefbd191c/ligand_4c2785dc.pdb
REMARK  4 active torsions:
REMARK  status: ('A' for Active; 'I' for Inactive)
REMARK    1  A    between atoms: C1_1  and  C2_2
REMARK    2  A    between atoms: C5_5  and  S1_8
REMARK    3  A    between atoms: S1_8  and  N1_11
REMARK    4  A    between atoms: N2_14  and  N3_15
REMARK                            x       y       z     vdW  Elec       q    Type
REMARK                         _______ _______ _______ _____ _____    ______ ____
ROOT
ATOM      1  N1  UNL     1      -1.353  -6.647   3.743  0.00  0.00    -0.168 N 
ATOM      2  C8  UNL     1      -0.148  -7.007   4.342  0.00  0.00    +0.333 C 
ATOM      3  O3  UNL     1       0.202  -8.168   4.484  0.00  0.00    -0.250 OA
ATOM      4  N2  UNL     1       0.577  -5.903   4.751  0.00  0.00    -0.231 N 
ATOM      5  H8  UNL     1      -1.613  -5.680   3.630  0.00  0.00    +0.178 HD
ATOM      6  H9  UNL     1       0.207  -4.973   4.612  0.00  0.00    +0.171 HD
ENDROOT
BRANCH   4   7
ATOM      7  N3  UNL     1       1.831  -6.059   5.372  0.00  0.00    -0.226 NA
ATOM      8  C9  UNL     1       1.949  -5.199   6.558  0.00  0.00    +0.105 C 
ATOM      9  C10 UNL     1       3.276  -5.434   7.280  0.00  0.00    +0.017 C 
ATOM     10  C11 UNL     1       4.461  -5.251   6.338  0.00  0.00    +0.003 C 
ATOM     11  C12 UNL     1       4.286  -6.104   5.087  0.00  0.00    +0.017 C 
ATOM     12  C13 UNL     1       2.932  -5.851   4.424  0.00  0.00    +0.105 C 
ENDBRANCH   4   7
BRANCH   1  13
ATOM     13  S1  UNL     1      -2.431  -7.777   3.162  0.00  0.00    +0.076 S 
ATOM     14  O1  UNL     1      -3.006  -8.502   4.272  0.00  0.00    -0.150 OA
ATOM     15  O2  UNL     1      -1.861  -8.433   2.006  0.00  0.00    -0.150 OA
BRANCH  13  20
ATOM     16  C1  UNL     1      -6.755  -4.058   1.061  0.00  0.00    +0.044 C 
ATOM     17  C2  UNL     1      -5.702  -4.977   1.607  0.00  0.00    -0.050 A 
ATOM     18  C3  UNL     1      -4.543  -4.452   2.197  0.00  0.00    +0.005 A 
ATOM     19  C4  UNL     1      -3.543  -5.303   2.670  0.00  0.00    +0.029 A 
ATOM     20  C5  UNL     1      -3.704  -6.684   2.550  0.00  0.00    +0.109 A 
ATOM     21  C6  UNL     1      -4.840  -7.223   1.940  0.00  0.00    +0.029 A 
ATOM     22  C7  UNL     1      -5.836  -6.366   1.469  0.00  0.00    +0.005 A 
ENDBRANCH  13  20
ENDBRANCH   1  13
TORSDOF 3
ENDMDL
