MODEL 3
REMARK VINA RESULT:     0.000      1.979      2.399
REMARK INTER + INTRA:           0.000
REMARK INTER:                   0.000
REMARK INTRA:                   0.000
REMARK UNBOUND:                 0.000
REMARK  Name = /tmp/bindforge_docking_fd9917f5-bd65-4c9b-a272-07d7bd292952/ligand_e22d252b.pdb
REMARK  3 active torsions:
REMARK  status: ('A' for Active; 'I' for Inactive)
REMARK    1  A    between atoms: C1_1  and  C2_2
REMARK    2  A    between atoms: C1_1  and  N1_5
REMARK    3  A    between atoms: C2_2  and  O2_4
REMARK                            x       y       z     vdW  Elec       q    Type
REMARK                         _______ _______ _______ _____ _____    ______ ____
ROOT
ATOM      1  C1  UNL     1      -4.887   6.519  -4.058  0.00  0.00    +0.199 C 
ENDROOT
BRANCH   1   2
ATOM      2  N1  UNL     1      -6.001   6.865  -4.961  0.00  0.00    -0.321 NA
ATOM      3  H4  UNL     1      -5.602   7.191  -5.844  0.00  0.00    +0.119 HD
ATOM      4  H5  UNL     1      -6.469   7.693  -4.583  0.00  0.00    +0.119 HD
ENDBRANCH   1   2
BRANCH   1   5
ATOM      5  C2  UNL     1      -5.349   5.579  -2.953  0.00  0.00    +0.319 C 
ATOM      6  O1  UNL     1      -6.424   5.002  -2.888  0.00  0.00    -0.250 OA
BRANCH   5   7
ATOM      7  O2  UNL     1      -4.423   5.418  -1.988  0.00  0.00    -0.480 OA
ATOM      8  H3  UNL     1      -3.590   5.730  -2.402  0.00  0.00    +0.295 HD
ENDBRANCH   5   7
ENDBRANCH   1   5
TORSDOF 3
ENDMDL
