MODEL 1
REMARK VINA RESULT:    -0.001      0.000      0.000
REMARK INTER + INTRA:          -0.730
REMARK INTER:                   0.000
REMARK INTRA:                  -0.730
REMARK UNBOUND:                -0.729
REMARK  Name = /tmp/bindforge_docking_4a3d891c-9d04-4ccd-9b83-baedc18b2c32/ligand_5ecf586d.pdb
REMARK  5 active torsions:
REMARK  status: ('A' for Active; 'I' for Inactive)
REMARK    1  A    between atoms: C1_1  and  C2_2
REMARK    2  A    between atoms: C2_2  and  O2_4
REMARK    3  A    between atoms: O2_4  and  C3_5
REMARK    4  A    between atoms: C8_10  and  C9_11
REMARK    5  A    between atoms: C9_11  and  O4_13
REMARK                            x       y       z     vdW  Elec       q    Type
REMARK                         _______ _______ _______ _____ _____    ______ ____
ROOT
ATOM      1  C3  UNL     1       5.259   0.773  -4.732  0.00  0.00    +0.146 A 
ATOM      2  C4  UNL     1       4.048   1.458  -4.883  0.00  0.00    +0.047 A 
ATOM      3  C5  UNL     1       3.019   0.885  -5.628  0.00  0.00    +0.004 A 
ATOM      4  C6  UNL     1       3.206  -0.359  -6.231  0.00  0.00    +0.001 A 
ATOM      5  C7  UNL     1       4.424  -1.033  -6.094  0.00  0.00    +0.018 A 
ATOM      6  C8  UNL     1       5.470  -0.470  -5.347  0.00  0.00    +0.101 A 
ENDROOT
BRANCH   6   7
ATOM      7  C9  UNL     1       6.778  -1.167  -5.222  0.00  0.00    +0.340 C 
ATOM      8  O3  UNL     1       7.577  -1.394  -6.110  0.00  0.00    -0.245 OA
BRANCH   7   9
ATOM      9  O4  UNL     1       7.033  -1.563  -3.959  0.00  0.00    -0.477 OA
ATOM     10  H8  UNL     1       7.172  -0.723  -3.475  0.00  0.00    +0.295 HD
ENDBRANCH   7   9
ENDBRANCH   6   7
BRANCH   1  11
ATOM     11  O2  UNL     1       6.259   1.415  -3.997  0.00  0.00    -0.425 OA
BRANCH  11  13
ATOM     12  C1  UNL     1       6.059   2.795  -2.103  0.00  0.00    +0.136 C 
ATOM     13  C2  UNL     1       6.014   1.391  -2.628  0.00  0.00    +0.309 C 
ATOM     14  O1  UNL     1       5.777   0.404  -1.945  0.00  0.00    -0.251 OA
ENDBRANCH  11  13
ENDBRANCH   1  11
TORSDOF 4
ENDMDL
