MODEL 8
REMARK VINA RESULT:     0.000      5.096      6.949
REMARK INTER + INTRA:          -0.598
REMARK INTER:                   0.000
REMARK INTRA:                  -0.598
REMARK UNBOUND:                -0.598
REMARK  Name = /tmp/bindforge_docking_85f42c74-3822-4c73-aa73-7f7500b3e001/ligand_1e342629.pdb
REMARK  8 active torsions:
REMARK  status: ('A' for Active; 'I' for Inactive)
REMARK    1  A    between atoms: C1_1  and  C2_2
REMARK    2  A    between atoms: C2_2  and  C3_3
REMARK    3  A    between atoms: C2_2  and  C4_4
REMARK    4  A    between atoms: C4_4  and  C5_5
REMARK    5  A    between atoms: C8_8  and  C11_11
REMARK    6  A    between atoms: C11_11  and  C12_12
REMARK    7  A    between atoms: C11_11  and  C13_13
REMARK    8  A    between atoms: C13_13  and  O2_15
REMARK                            x       y       z     vdW  Elec       q    Type
REMARK                         _______ _______ _______ _____ _____    ______ ____
ROOT
ATOM      1  C5  UNL     1      -2.886  -4.241  -2.704  0.00  0.00    -0.047 A 
ATOM      2  C6  UNL     1      -1.675  -3.583  -2.462  0.00  0.00    +0.004 A 
ATOM      3  C7  UNL     1      -1.555  -2.209  -2.691  0.00  0.00    +0.005 A 
ATOM      4  C8  UNL     1      -2.642  -1.461  -3.167  0.00  0.00    -0.034 A 
ATOM      5  C9  UNL     1      -3.852  -2.127  -3.410  0.00  0.00    +0.005 A 
ATOM      6  C10 UNL     1      -3.973  -3.500  -3.180  0.00  0.00    +0.004 A 
ENDROOT
BRANCH   4   7
ATOM      7  C11 UNL     1      -2.540   0.036  -3.412  0.00  0.00    +0.124 C 
ATOM      8  C12 UNL     1      -3.856   0.618  -3.928  0.00  0.00    +0.024 C 
BRANCH   7   9
ATOM      9  C13 UNL     1      -2.090   0.819  -2.189  0.00  0.00    +0.312 C 
ATOM     10  O1  UNL     1      -1.040   1.413  -2.016  0.00  0.00    -0.250 OA
BRANCH   9  11
ATOM     11  O2  UNL     1      -3.000   0.771  -1.190  0.00  0.00    -0.480 OA
ATOM     12  H18 UNL     1      -3.858   0.848  -1.658  0.00  0.00    +0.295 HD
ENDBRANCH   9  11
ENDBRANCH   7   9
ENDBRANCH   4   7
BRANCH   1  13
ATOM     13  C4  UNL     1      -3.019  -5.724  -2.453  0.00  0.00    +0.038 C 
BRANCH  13  15
ATOM     14  C1  UNL     1      -3.744  -5.627  -0.049  0.00  0.00    +0.007 C 
ATOM     15  C2  UNL     1      -2.673  -6.146  -1.011  0.00  0.00    -0.013 C 
ATOM     16  C3  UNL     1      -2.549  -7.665  -0.874  0.00  0.00    +0.007 C 
ENDBRANCH  13  15
ENDBRANCH   1  13
TORSDOF 5
ENDMDL
