MODEL 4
REMARK VINA RESULT:     0.000     10.267     11.798
REMARK INTER + INTRA:          -0.377
REMARK INTER:                   0.000
REMARK INTRA:                  -0.377
REMARK UNBOUND:                -0.377
REMARK  Name = /tmp/bindforge_docking_d24c35cd-675b-417e-ae98-49aeefbd191c/ligand_4c2785dc.pdb
REMARK  4 active torsions:
REMARK  status: ('A' for Active; 'I' for Inactive)
REMARK    1  A    between atoms: C1_1  and  C2_2
REMARK    2  A    between atoms: C5_5  and  S1_8
REMARK    3  A    between atoms: S1_8  and  N1_11
REMARK    4  A    between atoms: N2_14  and  N3_15
REMARK                            x       y       z     vdW  Elec       q    Type
REMARK                         _______ _______ _______ _____ _____    ______ ____
ROOT
ATOM      1  N1  UNL     1      -3.460   1.745  -0.699  0.00  0.00    -0.168 N 
ATOM      2  C8  UNL     1      -4.524   0.879  -0.943  0.00  0.00    +0.333 C 
ATOM      3  O3  UNL     1      -5.667   1.117  -0.589  0.00  0.00    -0.250 OA
ATOM      4  N2  UNL     1      -4.120  -0.259  -1.616  0.00  0.00    -0.231 N 
ATOM      5  H8  UNL     1      -2.526   1.529  -1.011  0.00  0.00    +0.178 HD
ATOM      6  H9  UNL     1      -3.148  -0.387  -1.858  0.00  0.00    +0.171 HD
ENDROOT
BRANCH   4   7
ATOM      7  N3  UNL     1      -5.053  -1.254  -1.965  0.00  0.00    -0.226 NA
ATOM      8  C9  UNL     1      -4.544  -2.596  -1.649  0.00  0.00    +0.105 C 
ATOM      9  C10 UNL     1      -5.592  -3.667  -1.947  0.00  0.00    +0.017 C 
ATOM     10  C11 UNL     1      -6.081  -3.582  -3.389  0.00  0.00    +0.003 C 
ATOM     11  C12 UNL     1      -6.545  -2.166  -3.712  0.00  0.00    +0.017 C 
ATOM     12  C13 UNL     1      -5.471  -1.135  -3.367  0.00  0.00    +0.105 C 
ENDBRANCH   4   7
BRANCH   1  13
ATOM     13  S1  UNL     1      -3.656   3.192   0.104  0.00  0.00    +0.076 S 
ATOM     14  O1  UNL     1      -3.978   2.929   1.489  0.00  0.00    -0.150 OA
ATOM     15  O2  UNL     1      -4.423   4.098  -0.722  0.00  0.00    -0.150 OA
BRANCH  13  20
ATOM     16  C1  UNL     1       2.080   5.199  -0.017  0.00  0.00    +0.044 C 
ATOM     17  C2  UNL     1       0.669   4.689   0.041  0.00  0.00    -0.050 A 
ATOM     18  C3  UNL     1       0.336   3.463  -0.552  0.00  0.00    +0.005 A 
ATOM     19  C4  UNL     1      -0.982   3.004  -0.536  0.00  0.00    +0.029 A 
ATOM     20  C5  UNL     1      -1.970   3.779   0.074  0.00  0.00    +0.109 A 
ATOM     21  C6  UNL     1      -1.660   5.016   0.644  0.00  0.00    +0.029 A 
ATOM     22  C7  UNL     1      -0.340   5.468   0.624  0.00  0.00    +0.005 A 
ENDBRANCH  13  20
ENDBRANCH   1  13
TORSDOF 3
ENDMDL
