MODEL 4
REMARK VINA RESULT:    -0.000      4.665      6.726
REMARK INTER + INTRA:          -0.642
REMARK INTER:                   0.000
REMARK INTRA:                  -0.642
REMARK UNBOUND:                -0.641
REMARK  Name = /tmp/bindforge_docking_961ec898-9754-41d2-9bfb-eaa9ec109518/ligand_3888f3a0.pdb
REMARK  9 active torsions:
REMARK  status: ('A' for Active; 'I' for Inactive)
REMARK    1  A    between atoms: C1_1  and  C2_2
REMARK    2  A    between atoms: C3_3  and  O1_12
REMARK    3  A    between atoms: C6_6  and  C8_8
REMARK    4  A    between atoms: C8_8  and  C9_9
REMARK    5  A    between atoms: C8_8  and  C10_10
REMARK    6  A    between atoms: C8_8  and  C11_11
REMARK    7  A    between atoms: O1_12  and  C12_13
REMARK    8  A    between atoms: C12_13  and  C13_14
REMARK    9  A    between atoms: C13_14  and  O3_16
REMARK                            x       y       z     vdW  Elec       q    Type
REMARK                         _______ _______ _______ _____ _____    ______ ____
ROOT
ATOM      1  C1  UNL     1       0.953  -5.830   1.074  0.00  0.00    +0.047 C 
ATOM      2  C2  UNL     1       1.726  -4.603   1.473  0.00  0.00    -0.008 A 
ATOM      3  C3  UNL     1       1.914  -3.547   0.568  0.00  0.00    +0.124 A 
ATOM      4  C4  UNL     1       2.637  -2.428   0.976  0.00  0.00    +0.046 A 
ATOM      5  C5  UNL     1       3.177  -2.355   2.268  0.00  0.00    +0.008 A 
ATOM      6  C6  UNL     1       3.011  -3.394   3.193  0.00  0.00    -0.042 A 
ATOM      7  C7  UNL     1       2.275  -4.516   2.765  0.00  0.00    +0.011 A 
ENDROOT
BRANCH   6   8
ATOM      8  C8  UNL     1       3.591  -3.345   4.616  0.00  0.00    -0.013 C 
ATOM      9  C9  UNL     1       2.870  -2.349   5.551  0.00  0.00    +0.015 C 
ATOM     10  C10 UNL     1       5.076  -2.923   4.557  0.00  0.00    +0.015 C 
ATOM     11  C11 UNL     1       3.487  -4.741   5.269  0.00  0.00    +0.015 C 
ENDBRANCH   6   8
BRANCH   3  12
ATOM     12  O1  UNL     1       1.345  -3.720  -0.665  0.00  0.00    -0.481 OA
BRANCH  12  13
ATOM     13  C12 UNL     1       2.180  -3.659  -1.810  0.00  0.00    +0.349 C 
BRANCH  13  14
ATOM     14  C13 UNL     1       3.226  -4.756  -1.915  0.00  0.00    +0.343 C 
ATOM     15  O2  UNL     1       2.999  -5.955  -1.970  0.00  0.00    -0.247 OA
BRANCH  14  16
ATOM     16  O3  UNL     1       4.494  -4.300  -1.906  0.00  0.00    -0.478 OA
ATOM     17  H18 UNL     1       4.629  -3.964  -0.996  0.00  0.00    +0.295 HD
ENDBRANCH  14  16
ENDBRANCH  13  14
ENDBRANCH  12  13
ENDBRANCH   3  12
TORSDOF 5
ENDMDL
