MODEL 9
REMARK VINA RESULT:     0.000     11.215     12.614
REMARK INTER + INTRA:          -0.598
REMARK INTER:                   0.000
REMARK INTRA:                  -0.598
REMARK UNBOUND:                -0.598
REMARK  Name = /tmp/bindforge_docking_1d48d786-830f-4031-a0c5-8533277a4919/ligand_8ac72b02.pdb
REMARK  8 active torsions:
REMARK  status: ('A' for Active; 'I' for Inactive)
REMARK    1  A    between atoms: C1_1  and  C2_2
REMARK    2  A    between atoms: C2_2  and  C3_3
REMARK    3  A    between atoms: C2_2  and  C4_4
REMARK    4  A    between atoms: C4_4  and  C5_5
REMARK    5  A    between atoms: C8_8  and  C11_11
REMARK    6  A    between atoms: C11_11  and  C12_12
REMARK    7  A    between atoms: C11_11  and  C13_13
REMARK    8  A    between atoms: C13_13  and  O2_15
REMARK                            x       y       z     vdW  Elec       q    Type
REMARK                         _______ _______ _______ _____ _____    ______ ____
ROOT
ATOM      1  C5  UNL     1       4.083  -5.118   1.621  0.00  0.00    -0.047 A 
ATOM      2  C6  UNL     1       3.331  -5.647   2.675  0.00  0.00    +0.004 A 
ATOM      3  C7  UNL     1       1.938  -5.727   2.584  0.00  0.00    +0.005 A 
ATOM      4  C8  UNL     1       1.266  -5.280   1.438  0.00  0.00    -0.034 A 
ATOM      5  C9  UNL     1       2.025  -4.748   0.385  0.00  0.00    +0.005 A 
ATOM      6  C10 UNL     1       3.417  -4.669   0.476  0.00  0.00    +0.004 A 
ENDROOT
BRANCH   4   7
ATOM      7  C11 UNL     1      -0.247  -5.367   1.310  0.00  0.00    +0.124 C 
ATOM      8  C12 UNL     1      -0.737  -4.816  -0.029  0.00  0.00    +0.024 C 
BRANCH   7   9
ATOM      9  C13 UNL     1      -0.790  -6.774   1.502  0.00  0.00    +0.312 C 
ATOM     10  O1  UNL     1      -1.473  -7.203   2.416  0.00  0.00    -0.250 OA
BRANCH   9  11
ATOM     11  O2  UNL     1      -0.387  -7.614   0.521  0.00  0.00    -0.480 OA
ATOM     12  H18 UNL     1      -0.412  -7.055  -0.284  0.00  0.00    +0.295 HD
ENDBRANCH   9  11
ENDBRANCH   7   9
ENDBRANCH   4   7
BRANCH   1  13
ATOM     13  C4  UNL     1       5.588  -5.035   1.716  0.00  0.00    +0.038 C 
BRANCH  13  15
ATOM     14  C1  UNL     1       6.143  -7.291   0.759  0.00  0.00    +0.007 C 
ATOM     15  C2  UNL     1       6.272  -6.390   1.989  0.00  0.00    -0.013 C 
ATOM     16  C3  UNL     1       7.748  -6.223   2.354  0.00  0.00    +0.007 C 
ENDBRANCH  13  15
ENDBRANCH   1  13
TORSDOF 5
ENDMDL
