MODEL 5
REMARK VINA RESULT:     0.000      5.602      7.157
REMARK INTER + INTRA:          -0.598
REMARK INTER:                   0.000
REMARK INTRA:                  -0.598
REMARK UNBOUND:                -0.598
REMARK  Name = /tmp/bindforge_docking_85f42c74-3822-4c73-aa73-7f7500b3e001/ligand_1e342629.pdb
REMARK  8 active torsions:
REMARK  status: ('A' for Active; 'I' for Inactive)
REMARK    1  A    between atoms: C1_1  and  C2_2
REMARK    2  A    between atoms: C2_2  and  C3_3
REMARK    3  A    between atoms: C2_2  and  C4_4
REMARK    4  A    between atoms: C4_4  and  C5_5
REMARK    5  A    between atoms: C8_8  and  C11_11
REMARK    6  A    between atoms: C11_11  and  C12_12
REMARK    7  A    between atoms: C11_11  and  C13_13
REMARK    8  A    between atoms: C13_13  and  O2_15
REMARK                            x       y       z     vdW  Elec       q    Type
REMARK                         _______ _______ _______ _____ _____    ______ ____
ROOT
ATOM      1  C5  UNL     1       0.620  -4.935   0.620  0.00  0.00    -0.047 A 
ATOM      2  C6  UNL     1       0.010  -4.232   1.664  0.00  0.00    +0.004 A 
ATOM      3  C7  UNL     1      -1.335  -3.859   1.579  0.00  0.00    +0.005 A 
ATOM      4  C8  UNL     1      -2.099  -4.178   0.448  0.00  0.00    -0.034 A 
ATOM      5  C9  UNL     1      -1.481  -4.879  -0.598  0.00  0.00    +0.005 A 
ATOM      6  C10 UNL     1      -0.137  -5.255  -0.512  0.00  0.00    +0.004 A 
ENDROOT
BRANCH   4   7
ATOM      7  C11 UNL     1      -3.566  -3.793   0.336  0.00  0.00    +0.124 C 
ATOM      8  C12 UNL     1      -4.175  -4.253  -0.989  0.00  0.00    +0.024 C 
BRANCH   7   9
ATOM      9  C13 UNL     1      -4.416  -4.311   1.485  0.00  0.00    +0.312 C 
ATOM     10  O1  UNL     1      -4.965  -3.672   2.367  0.00  0.00    -0.250 OA
BRANCH   9  11
ATOM     11  O2  UNL     1      -4.491  -5.661   1.496  0.00  0.00    -0.480 OA
ATOM     12  H18 UNL     1      -5.365  -5.838   1.902  0.00  0.00    +0.295 HD
ENDBRANCH   9  11
ENDBRANCH   7   9
ENDBRANCH   4   7
BRANCH   1  13
ATOM     13  C4  UNL     1       2.071  -5.343   0.713  0.00  0.00    +0.038 C 
BRANCH  13  15
ATOM     14  C1  UNL     1       1.754  -7.582   1.809  0.00  0.00    +0.007 C 
ATOM     15  C2  UNL     1       2.400  -6.201   1.950  0.00  0.00    -0.013 C 
ATOM     16  C3  UNL     1       3.909  -6.356   2.156  0.00  0.00    +0.007 C 
ENDBRANCH  13  15
ENDBRANCH   1  13
TORSDOF 5
ENDMDL
