MODEL 7
REMARK VINA RESULT:     0.000      9.820     11.021
REMARK INTER + INTRA:          -0.729
REMARK INTER:                   0.000
REMARK INTRA:                  -0.729
REMARK UNBOUND:                -0.729
REMARK  Name = /tmp/bindforge_docking_4a3d891c-9d04-4ccd-9b83-baedc18b2c32/ligand_5ecf586d.pdb
REMARK  5 active torsions:
REMARK  status: ('A' for Active; 'I' for Inactive)
REMARK    1  A    between atoms: C1_1  and  C2_2
REMARK    2  A    between atoms: C2_2  and  O2_4
REMARK    3  A    between atoms: O2_4  and  C3_5
REMARK    4  A    between atoms: C8_10  and  C9_11
REMARK    5  A    between atoms: C9_11  and  O4_13
REMARK                            x       y       z     vdW  Elec       q    Type
REMARK                         _______ _______ _______ _____ _____    ______ ____
ROOT
ATOM      1  C3  UNL     1      -3.567  -5.765  -1.946  0.00  0.00    +0.146 A 
ATOM      2  C4  UNL     1      -3.897  -7.121  -1.843  0.00  0.00    +0.047 A 
ATOM      3  C5  UNL     1      -4.571  -7.748  -2.889  0.00  0.00    +0.004 A 
ATOM      4  C6  UNL     1      -4.924  -7.020  -4.025  0.00  0.00    +0.001 A 
ATOM      5  C7  UNL     1      -4.609  -5.660  -4.117  0.00  0.00    +0.018 A 
ATOM      6  C8  UNL     1      -3.931  -5.013  -3.072  0.00  0.00    +0.101 A 
ENDROOT
BRANCH   6   7
ATOM      7  C9  UNL     1      -3.619  -3.562  -3.149  0.00  0.00    +0.340 C 
ATOM      8  O3  UNL     1      -4.412  -2.639  -3.163  0.00  0.00    -0.245 OA
BRANCH   7   9
ATOM      9  O4  UNL     1      -2.295  -3.321  -3.213  0.00  0.00    -0.477 OA
ATOM     10  H8  UNL     1      -2.199  -2.436  -2.804  0.00  0.00    +0.295 HD
ENDBRANCH   7   9
ENDBRANCH   6   7
BRANCH   1  11
ATOM     11  O2  UNL     1      -2.917  -5.191  -0.850  0.00  0.00    -0.425 OA
BRANCH  11  13
ATOM     12  C1  UNL     1      -1.321  -6.136   0.597  0.00  0.00    +0.136 C 
ATOM     13  C2  UNL     1      -1.580  -5.565  -0.765  0.00  0.00    +0.309 C 
ATOM     14  O1  UNL     1      -0.738  -5.473  -1.649  0.00  0.00    -0.251 OA
ENDBRANCH  11  13
ENDBRANCH   1  11
TORSDOF 4
ENDMDL
