MODEL 9
REMARK VINA RESULT:     0.000      6.675      8.883
REMARK INTER + INTRA:          -0.641
REMARK INTER:                   0.000
REMARK INTRA:                  -0.641
REMARK UNBOUND:                -0.641
REMARK  Name = /tmp/bindforge_docking_961ec898-9754-41d2-9bfb-eaa9ec109518/ligand_3888f3a0.pdb
REMARK  9 active torsions:
REMARK  status: ('A' for Active; 'I' for Inactive)
REMARK    1  A    between atoms: C1_1  and  C2_2
REMARK    2  A    between atoms: C3_3  and  O1_12
REMARK    3  A    between atoms: C6_6  and  C8_8
REMARK    4  A    between atoms: C8_8  and  C9_9
REMARK    5  A    between atoms: C8_8  and  C10_10
REMARK    6  A    between atoms: C8_8  and  C11_11
REMARK    7  A    between atoms: O1_12  and  C12_13
REMARK    8  A    between atoms: C12_13  and  C13_14
REMARK    9  A    between atoms: C13_14  and  O3_16
REMARK                            x       y       z     vdW  Elec       q    Type
REMARK                         _______ _______ _______ _____ _____    ______ ____
ROOT
ATOM      1  C1  UNL     1       0.930  -2.438   3.618  0.00  0.00    +0.047 C 
ATOM      2  C2  UNL     1      -0.274  -1.590   3.929  0.00  0.00    -0.008 A 
ATOM      3  C3  UNL     1      -0.779  -1.513   5.235  0.00  0.00    +0.124 A 
ATOM      4  C4  UNL     1      -1.896  -0.717   5.482  0.00  0.00    +0.046 A 
ATOM      5  C5  UNL     1      -2.513  -0.005   4.443  0.00  0.00    +0.008 A 
ATOM      6  C6  UNL     1      -2.034  -0.065   3.128  0.00  0.00    -0.042 A 
ATOM      7  C7  UNL     1      -0.904  -0.871   2.897  0.00  0.00    +0.011 A 
ENDROOT
BRANCH   6   8
ATOM      8  C8  UNL     1      -2.689   0.702   1.966  0.00  0.00    -0.013 C 
ATOM      9  C9  UNL     1      -2.453   2.228   2.014  0.00  0.00    +0.015 C 
ATOM     10  C10 UNL     1      -4.217   0.476   1.990  0.00  0.00    +0.015 C 
ATOM     11  C11 UNL     1      -2.122   0.194   0.622  0.00  0.00    +0.015 C 
ENDBRANCH   6   8
BRANCH   3  12
ATOM     12  O1  UNL     1      -0.103  -2.246   6.173  0.00  0.00    -0.481 OA
BRANCH  12  13
ATOM     13  C12 UNL     1      -0.817  -3.220   6.916  0.00  0.00    +0.349 C 
BRANCH  13  14
ATOM     14  C13 UNL     1      -1.365  -4.384   6.108  0.00  0.00    +0.343 C 
ATOM     15  O2  UNL     1      -0.702  -5.169   5.447  0.00  0.00    -0.247 OA
BRANCH  14  16
ATOM     16  O3  UNL     1      -2.709  -4.480   6.138  0.00  0.00    -0.478 OA
ATOM     17  H18 UNL     1      -2.893  -5.169   6.809  0.00  0.00    +0.295 HD
ENDBRANCH  14  16
ENDBRANCH  13  14
ENDBRANCH  12  13
ENDBRANCH   3  12
TORSDOF 5
ENDMDL
