MODEL 3
REMARK VINA RESULT:     0.000      6.441      7.866
REMARK INTER + INTRA:          -0.730
REMARK INTER:                   0.000
REMARK INTRA:                  -0.730
REMARK UNBOUND:                -0.730
REMARK  Name = /tmp/bindforge_docking_31685138-518f-47f5-8f04-b8d48f12ba79/ligand_803e0acc.pdb
REMARK  5 active torsions:
REMARK  status: ('A' for Active; 'I' for Inactive)
REMARK    1  A    between atoms: C1_1  and  C2_2
REMARK    2  A    between atoms: C2_2  and  O2_4
REMARK    3  A    between atoms: O2_4  and  C3_5
REMARK    4  A    between atoms: C8_10  and  C9_11
REMARK    5  A    between atoms: C9_11  and  O4_13
REMARK                            x       y       z     vdW  Elec       q    Type
REMARK                         _______ _______ _______ _____ _____    ______ ____
ROOT
ATOM      1  C3  UNL     1      -5.530  -2.635   3.448  0.00  0.00    +0.146 A 
ATOM      2  C4  UNL     1      -6.037  -1.334   3.535  0.00  0.00    +0.047 A 
ATOM      3  C5  UNL     1      -6.354  -0.638   2.370  0.00  0.00    +0.004 A 
ATOM      4  C6  UNL     1      -6.152  -1.235   1.125  0.00  0.00    +0.001 A 
ATOM      5  C7  UNL     1      -5.627  -2.529   1.042  0.00  0.00    +0.018 A 
ATOM      6  C8  UNL     1      -5.303  -3.244   2.205  0.00  0.00    +0.101 A 
ENDROOT
BRANCH   6   7
ATOM      7  C9  UNL     1      -4.717  -4.608   2.123  0.00  0.00    +0.340 C 
ATOM      8  O3  UNL     1      -3.630  -4.915   1.670  0.00  0.00    -0.245 OA
BRANCH   7   9
ATOM      9  O4  UNL     1      -5.539  -5.553   2.620  0.00  0.00    -0.477 OA
ATOM     10  H8  UNL     1      -5.949  -5.948   1.823  0.00  0.00    +0.295 HD
ENDBRANCH   7   9
ENDBRANCH   6   7
BRANCH   1  11
ATOM     11  O2  UNL     1      -5.207  -3.266   4.652  0.00  0.00    -0.425 OA
BRANCH  11  13
ATOM     12  C1  UNL     1      -6.283  -3.132   6.740  0.00  0.00    +0.136 C 
ATOM     13  C2  UNL     1      -6.331  -3.694   5.350  0.00  0.00    +0.309 C 
ATOM     14  O1  UNL     1      -7.236  -4.397   4.919  0.00  0.00    -0.251 OA
ENDBRANCH  11  13
ENDBRANCH   1  11
TORSDOF 4
ENDMDL
