MODEL 5
REMARK VINA RESULT:     0.000     10.235     12.069
REMARK INTER + INTRA:          -0.729
REMARK INTER:                   0.000
REMARK INTRA:                  -0.729
REMARK UNBOUND:                -0.729
REMARK  Name = /tmp/bindforge_docking_4a3d891c-9d04-4ccd-9b83-baedc18b2c32/ligand_5ecf586d.pdb
REMARK  5 active torsions:
REMARK  status: ('A' for Active; 'I' for Inactive)
REMARK    1  A    between atoms: C1_1  and  C2_2
REMARK    2  A    between atoms: C2_2  and  O2_4
REMARK    3  A    between atoms: O2_4  and  C3_5
REMARK    4  A    between atoms: C8_10  and  C9_11
REMARK    5  A    between atoms: C9_11  and  O4_13
REMARK                            x       y       z     vdW  Elec       q    Type
REMARK                         _______ _______ _______ _____ _____    ______ ____
ROOT
ATOM      1  C3  UNL     1      -0.642   0.223   4.792  0.00  0.00    +0.146 A 
ATOM      2  C4  UNL     1      -0.873  -1.151   4.922  0.00  0.00    +0.047 A 
ATOM      3  C5  UNL     1      -1.552  -1.634   6.039  0.00  0.00    +0.004 A 
ATOM      4  C6  UNL     1      -1.987  -0.749   7.025  0.00  0.00    +0.001 A 
ATOM      5  C7  UNL     1      -1.739   0.622   6.901  0.00  0.00    +0.018 A 
ATOM      6  C8  UNL     1      -1.055   1.125   5.783  0.00  0.00    +0.101 A 
ENDROOT
BRANCH   6   7
ATOM      7  C9  UNL     1      -0.762   2.577   5.659  0.00  0.00    +0.340 C 
ATOM      8  O3  UNL     1      -0.029   3.242   6.366  0.00  0.00    -0.245 OA
BRANCH   7   9
ATOM      9  O4  UNL     1      -1.419   3.150   4.631  0.00  0.00    -0.477 OA
ATOM     10  H8  UNL     1      -2.017   2.442   4.313  0.00  0.00    +0.295 HD
ENDBRANCH   7   9
ENDBRANCH   6   7
BRANCH   1  11
ATOM     11  O2  UNL     1       0.070   0.637   3.663  0.00  0.00    -0.425 OA
BRANCH  11  13
ATOM     12  C1  UNL     1       0.018  -0.218   1.473  0.00  0.00    +0.136 C 
ATOM     13  C2  UNL     1      -0.698   0.602   2.504  0.00  0.00    +0.309 C 
ATOM     14  O1  UNL     1      -1.790   1.128   2.335  0.00  0.00    -0.251 OA
ENDBRANCH  11  13
ENDBRANCH   1  11
TORSDOF 4
ENDMDL
