MODEL 5
REMARK VINA RESULT:     0.000     17.483     17.587
REMARK INTER + INTRA:           0.000
REMARK INTER:                   0.000
REMARK INTRA:                   0.000
REMARK UNBOUND:                 0.000
REMARK  Name = /tmp/bindforge_docking_188b4155-2233-4d83-91ba-91402b6142a2/ligand_adef7b17.pdb
REMARK  3 active torsions:
REMARK  status: ('A' for Active; 'I' for Inactive)
REMARK    1  A    between atoms: C1_1  and  C2_2
REMARK    2  A    between atoms: C1_1  and  N1_5
REMARK    3  A    between atoms: C2_2  and  O2_4
REMARK                            x       y       z     vdW  Elec       q    Type
REMARK                         _______ _______ _______ _____ _____    ______ ____
ROOT
ATOM      1  C1  UNL     1      -8.555  -4.774   0.997  0.00  0.00    +0.199 C 
ENDROOT
BRANCH   1   2
ATOM      2  N1  UNL     1      -9.776  -4.109   1.490  0.00  0.00    -0.321 NA
ATOM      3  H4  UNL     1      -9.493  -3.369   2.137  0.00  0.00    +0.119 HD
ATOM      4  H5  UNL     1     -10.281  -4.773   2.082  0.00  0.00    +0.119 HD
ENDBRANCH   1   2
BRANCH   1   5
ATOM      5  C2  UNL     1      -8.439  -6.187   1.550  0.00  0.00    +0.319 C 
ATOM      6  O1  UNL     1      -8.687  -6.547   2.691  0.00  0.00    -0.250 OA
BRANCH   5   7
ATOM      7  O2  UNL     1      -8.015  -7.072   0.628  0.00  0.00    -0.480 OA
ATOM      8  H3  UNL     1      -8.805  -7.232   0.069  0.00  0.00    +0.295 HD
ENDBRANCH   5   7
ENDBRANCH   1   5
TORSDOF 3
ENDMDL
