MODEL 6
REMARK VINA RESULT:     0.000      6.842      7.960
REMARK INTER + INTRA:          -0.730
REMARK INTER:                   0.000
REMARK INTRA:                  -0.730
REMARK UNBOUND:                -0.730
REMARK  Name = /tmp/bindforge_docking_624297ad-3f37-4fec-b288-97d5b5a1d698/ligand_3444761d.pdb
REMARK  5 active torsions:
REMARK  status: ('A' for Active; 'I' for Inactive)
REMARK    1  A    between atoms: C1_1  and  C2_2
REMARK    2  A    between atoms: C2_2  and  O2_4
REMARK    3  A    between atoms: O2_4  and  C3_5
REMARK    4  A    between atoms: C8_10  and  C9_11
REMARK    5  A    between atoms: C9_11  and  O4_13
REMARK                            x       y       z     vdW  Elec       q    Type
REMARK                         _______ _______ _______ _____ _____    ______ ____
ROOT
ATOM      1  C3  UNL     1      -0.534  -4.412  -2.917  0.00  0.00    +0.146 A 
ATOM      2  C4  UNL     1      -1.618  -4.858  -2.153  0.00  0.00    +0.047 A 
ATOM      3  C5  UNL     1      -1.398  -5.718  -1.078  0.00  0.00    +0.004 A 
ATOM      4  C6  UNL     1      -0.102  -6.138  -0.778  0.00  0.00    +0.001 A 
ATOM      5  C7  UNL     1       0.977  -5.705  -1.555  0.00  0.00    +0.018 A 
ATOM      6  C8  UNL     1       0.773  -4.840  -2.641  0.00  0.00    +0.101 A 
ENDROOT
BRANCH   6   7
ATOM      7  C9  UNL     1       1.911  -4.399  -3.489  0.00  0.00    +0.340 C 
ATOM      8  O3  UNL     1       2.600  -5.093  -4.213  0.00  0.00    -0.245 OA
BRANCH   7   9
ATOM      9  O4  UNL     1       2.147  -3.076  -3.389  0.00  0.00    -0.477 OA
ATOM     10  H8  UNL     1       2.990  -3.027  -2.892  0.00  0.00    +0.295 HD
ENDBRANCH   7   9
ENDBRANCH   6   7
BRANCH   1  11
ATOM     11  O2  UNL     1      -0.828  -3.576  -3.997  0.00  0.00    -0.425 OA
BRANCH  11  13
ATOM     12  C1  UNL     1      -2.478  -1.911  -4.186  0.00  0.00    +0.136 C 
ATOM     13  C2  UNL     1      -1.148  -2.282  -3.600  0.00  0.00    +0.309 C 
ATOM     14  O1  UNL     1      -0.483  -1.554  -2.875  0.00  0.00    -0.251 OA
ENDBRANCH  11  13
ENDBRANCH   1  11
TORSDOF 4
ENDMDL
