MODEL 4
REMARK VINA RESULT:     0.000      7.401      8.814
REMARK INTER + INTRA:          -0.729
REMARK INTER:                   0.000
REMARK INTRA:                  -0.729
REMARK UNBOUND:                -0.729
REMARK  Name = /tmp/bindforge_docking_4a3d891c-9d04-4ccd-9b83-baedc18b2c32/ligand_5ecf586d.pdb
REMARK  5 active torsions:
REMARK  status: ('A' for Active; 'I' for Inactive)
REMARK    1  A    between atoms: C1_1  and  C2_2
REMARK    2  A    between atoms: C2_2  and  O2_4
REMARK    3  A    between atoms: O2_4  and  C3_5
REMARK    4  A    between atoms: C8_10  and  C9_11
REMARK    5  A    between atoms: C9_11  and  O4_13
REMARK                            x       y       z     vdW  Elec       q    Type
REMARK                         _______ _______ _______ _____ _____    ______ ____
ROOT
ATOM      1  C3  UNL     1      -0.520  -1.750   0.381  0.00  0.00    +0.146 A 
ATOM      2  C4  UNL     1      -0.662  -0.649  -0.470  0.00  0.00    +0.047 A 
ATOM      3  C5  UNL     1       0.011   0.537  -0.181  0.00  0.00    +0.004 A 
ATOM      4  C6  UNL     1       0.810   0.625   0.959  0.00  0.00    +0.001 A 
ATOM      5  C7  UNL     1       0.935  -0.472   1.817  0.00  0.00    +0.018 A 
ATOM      6  C8  UNL     1       0.264  -1.674   1.542  0.00  0.00    +0.101 A 
ENDROOT
BRANCH   6   7
ATOM      7  C9  UNL     1       0.369  -2.835   2.465  0.00  0.00    +0.340 C 
ATOM      8  O3  UNL     1      -0.043  -2.904   3.608  0.00  0.00    -0.245 OA
BRANCH   7   9
ATOM      9  O4  UNL     1       1.004  -3.883   1.906  0.00  0.00    -0.477 OA
ATOM     10  H8  UNL     1       1.454  -4.314   2.663  0.00  0.00    +0.295 HD
ENDBRANCH   7   9
ENDBRANCH   6   7
BRANCH   1  11
ATOM     11  O2  UNL     1      -1.244  -2.899   0.050  0.00  0.00    -0.425 OA
BRANCH  11  13
ATOM     12  C1  UNL     1      -1.744  -3.783  -2.072  0.00  0.00    +0.136 C 
ATOM     13  C2  UNL     1      -0.689  -3.589  -1.023  0.00  0.00    +0.309 C 
ATOM     14  O1  UNL     1       0.470  -3.968  -1.128  0.00  0.00    -0.251 OA
ENDBRANCH  11  13
ENDBRANCH   1  11
TORSDOF 4
ENDMDL
