MODEL 1
REMARK VINA RESULT:    -0.000      0.000      0.000
REMARK INTER + INTRA:          -0.141
REMARK INTER:                   0.000
REMARK INTRA:                  -0.141
REMARK UNBOUND:                -0.141
REMARK  Name = /tmp/bindforge_docking_809efb75-dc61-4263-b324-ae7058e65dcb/ligand_d17e0cb4.pdb
REMARK  3 active torsions:
REMARK  status: ('A' for Active; 'I' for Inactive)
REMARK    1  A    between atoms: C4_4  and  C7_7
REMARK    2  A    between atoms: C7_7  and  C8_8
REMARK    3  A    between atoms: C8_8  and  O2_10
REMARK                            x       y       z     vdW  Elec       q    Type
REMARK                         _______ _______ _______ _____ _____    ______ ____
ROOT
ATOM      1  C1  UNL     1       7.345  -6.987   6.008  0.00  0.00    +0.000 A 
ATOM      2  C2  UNL     1       8.434  -6.279   5.503  0.00  0.00    +0.000 A 
ATOM      3  C3  UNL     1       8.536  -4.904   5.721  0.00  0.00    +0.004 A 
ATOM      4  C4  UNL     1       7.546  -4.223   6.441  0.00  0.00    -0.037 A 
ATOM      5  C5  UNL     1       6.458  -4.946   6.953  0.00  0.00    +0.004 A 
ATOM      6  C6  UNL     1       6.358  -6.321   6.734  0.00  0.00    +0.000 A 
ENDROOT
BRANCH   4   7
ATOM      7  C7  UNL     1       7.660  -2.738   6.686  0.00  0.00    +0.155 C 
BRANCH   7   8
ATOM      8  C8  UNL     1       7.629  -2.350   8.144  0.00  0.00    +0.309 C 
ATOM      9  O1  UNL     1       6.782  -1.710   8.743  0.00  0.00    -0.251 OA
BRANCH   8  10
ATOM     10  O2  UNL     1       8.715  -2.808   8.805  0.00  0.00    -0.480 OA
ATOM     11  H8  UNL     1       9.442  -2.240   8.473  0.00  0.00    +0.295 HD
ENDBRANCH   8  10
ENDBRANCH   7   8
ENDBRANCH   4   7
TORSDOF 3
ENDMDL
