MODEL 8
REMARK VINA RESULT:     0.000     17.129     17.457
REMARK INTER + INTRA:           0.000
REMARK INTER:                   0.000
REMARK INTRA:                   0.000
REMARK UNBOUND:                 0.000
REMARK  Name = /tmp/bindforge_docking_fd9917f5-bd65-4c9b-a272-07d7bd292952/ligand_e22d252b.pdb
REMARK  3 active torsions:
REMARK  status: ('A' for Active; 'I' for Inactive)
REMARK    1  A    between atoms: C1_1  and  C2_2
REMARK    2  A    between atoms: C1_1  and  N1_5
REMARK    3  A    between atoms: C2_2  and  O2_4
REMARK                            x       y       z     vdW  Elec       q    Type
REMARK                         _______ _______ _______ _____ _____    ______ ____
ROOT
ATOM      1  C1  UNL     1       9.222   6.697   4.257  0.00  0.00    +0.199 C 
ENDROOT
BRANCH   1   2
ATOM      2  N1  UNL     1      10.019   5.714   5.016  0.00  0.00    -0.321 NA
ATOM      3  H4  UNL     1      10.387   5.027   4.354  0.00  0.00    +0.119 HD
ATOM      4  H5  UNL     1       9.379   5.173   5.602  0.00  0.00    +0.119 HD
ENDBRANCH   1   2
BRANCH   1   5
ATOM      5  C2  UNL     1       8.360   7.539   5.186  0.00  0.00    +0.319 C 
ATOM      6  O1  UNL     1       7.744   8.552   4.892  0.00  0.00    -0.250 OA
BRANCH   5   7
ATOM      7  O2  UNL     1       8.322   7.052   6.441  0.00  0.00    -0.480 OA
ATOM      8  H3  UNL     1       9.234   6.730   6.601  0.00  0.00    +0.295 HD
ENDBRANCH   5   7
ENDBRANCH   1   5
TORSDOF 3
ENDMDL
