MODEL 1
REMARK VINA RESULT:     0.000      0.000      0.000
REMARK INTER + INTRA:          -0.730
REMARK INTER:                   0.000
REMARK INTRA:                  -0.730
REMARK UNBOUND:                -0.730
REMARK  Name = /tmp/bindforge_docking_1c827d14-e446-4db6-a833-638c220cdc2f/ligand_d6292fd7.pdb
REMARK  5 active torsions:
REMARK  status: ('A' for Active; 'I' for Inactive)
REMARK    1  A    between atoms: C1_1  and  C2_2
REMARK    2  A    between atoms: C2_2  and  O2_4
REMARK    3  A    between atoms: O2_4  and  C3_5
REMARK    4  A    between atoms: C8_10  and  C9_11
REMARK    5  A    between atoms: C9_11  and  O4_13
REMARK                            x       y       z     vdW  Elec       q    Type
REMARK                         _______ _______ _______ _____ _____    ______ ____
ROOT
ATOM      1  C3  UNL     1      -0.639  -6.200  -0.479  0.00  0.00    +0.146 A 
ATOM      2  C4  UNL     1      -0.786  -5.655   0.802  0.00  0.00    +0.047 A 
ATOM      3  C5  UNL     1      -0.708  -4.275   0.977  0.00  0.00    +0.004 A 
ATOM      4  C6  UNL     1      -0.472  -3.446  -0.120  0.00  0.00    +0.001 A 
ATOM      5  C7  UNL     1      -0.307  -3.995  -1.396  0.00  0.00    +0.018 A 
ATOM      6  C8  UNL     1      -0.382  -5.384  -1.590  0.00  0.00    +0.101 A 
ENDROOT
BRANCH   6   7
ATOM      7  C9  UNL     1      -0.179  -5.977  -2.938  0.00  0.00    +0.340 C 
ATOM      8  O3  UNL     1       0.844  -5.972  -3.596  0.00  0.00    -0.245 OA
BRANCH   7   9
ATOM      9  O4  UNL     1      -1.295  -6.561  -3.418  0.00  0.00    -0.477 OA
ATOM     10  H8  UNL     1      -2.012  -5.953  -3.145  0.00  0.00    +0.295 HD
ENDBRANCH   7   9
ENDBRANCH   6   7
BRANCH   1  11
ATOM     11  O2  UNL     1      -0.699  -7.592  -0.580  0.00  0.00    -0.425 OA
BRANCH  11  13
ATOM     12  C1  UNL     1      -2.026  -9.118   0.622  0.00  0.00    +0.136 C 
ATOM     13  C2  UNL     1      -1.995  -8.082  -0.462  0.00  0.00    +0.309 C 
ATOM     14  O1  UNL     1      -2.972  -7.727  -1.110  0.00  0.00    -0.251 OA
ENDBRANCH  11  13
ENDBRANCH   1  11
TORSDOF 4
ENDMDL
