MODEL 7
REMARK VINA RESULT:     0.000      4.035      5.331
REMARK INTER + INTRA:          -0.598
REMARK INTER:                   0.000
REMARK INTRA:                  -0.598
REMARK UNBOUND:                -0.598
REMARK  Name = /tmp/bindforge_docking_85f42c74-3822-4c73-aa73-7f7500b3e001/ligand_1e342629.pdb
REMARK  8 active torsions:
REMARK  status: ('A' for Active; 'I' for Inactive)
REMARK    1  A    between atoms: C1_1  and  C2_2
REMARK    2  A    between atoms: C2_2  and  C3_3
REMARK    3  A    between atoms: C2_2  and  C4_4
REMARK    4  A    between atoms: C4_4  and  C5_5
REMARK    5  A    between atoms: C8_8  and  C11_11
REMARK    6  A    between atoms: C11_11  and  C12_12
REMARK    7  A    between atoms: C11_11  and  C13_13
REMARK    8  A    between atoms: C13_13  and  O2_15
REMARK                            x       y       z     vdW  Elec       q    Type
REMARK                         _______ _______ _______ _____ _____    ______ ____
ROOT
ATOM      1  C5  UNL     1       3.200   0.215  -3.478  0.00  0.00    -0.047 A 
ATOM      2  C6  UNL     1       4.500  -0.120  -3.870  0.00  0.00    +0.004 A 
ATOM      3  C7  UNL     1       5.570   0.733  -3.587  0.00  0.00    +0.005 A 
ATOM      4  C8  UNL     1       5.366   1.942  -2.906  0.00  0.00    -0.034 A 
ATOM      5  C9  UNL     1       4.060   2.275  -2.518  0.00  0.00    +0.005 A 
ATOM      6  C10 UNL     1       2.990   1.421  -2.800  0.00  0.00    +0.004 A 
ENDROOT
BRANCH   4   7
ATOM      7  C11 UNL     1       6.515   2.881  -2.576  0.00  0.00    +0.124 C 
ATOM      8  C12 UNL     1       6.035   4.128  -1.833  0.00  0.00    +0.024 C 
BRANCH   7   9
ATOM      9  C13 UNL     1       7.627   2.219  -1.778  0.00  0.00    +0.312 C 
ATOM     10  O1  UNL     1       8.765   1.966  -2.134  0.00  0.00    -0.250 OA
BRANCH   9  11
ATOM     11  O2  UNL     1       7.218   1.849  -0.544  0.00  0.00    -0.480 OA
ATOM     12  H18 UNL     1       8.021   1.452  -0.146  0.00  0.00    +0.295 HD
ENDBRANCH   9  11
ENDBRANCH   7   9
ENDBRANCH   4   7
BRANCH   1  13
ATOM     13  C4  UNL     1       2.043  -0.707  -3.779  0.00  0.00    +0.038 C 
BRANCH  13  15
ATOM     14  C1  UNL     1       2.132  -2.103  -1.692  0.00  0.00    +0.007 C 
ATOM     15  C2  UNL     1       2.220  -2.133  -3.219  0.00  0.00    -0.013 C 
ATOM     16  C3  UNL     1       1.175  -3.101  -3.777  0.00  0.00    +0.007 C 
ENDBRANCH  13  15
ENDBRANCH   1  13
TORSDOF 5
ENDMDL
