MODEL 1
REMARK VINA RESULT:    -0.001      0.000      0.000
REMARK INTER + INTRA:          -0.730
REMARK INTER:                   0.000
REMARK INTRA:                  -0.730
REMARK UNBOUND:                -0.729
REMARK  Name = /tmp/bindforge_docking_99865370-1374-4e40-b54b-bfb6cfc11716/ligand_c7d2e9a9.pdb
REMARK  5 active torsions:
REMARK  status: ('A' for Active; 'I' for Inactive)
REMARK    1  A    between atoms: C1_1  and  C2_2
REMARK    2  A    between atoms: C2_2  and  O2_4
REMARK    3  A    between atoms: O2_4  and  C3_5
REMARK    4  A    between atoms: C8_10  and  C9_11
REMARK    5  A    between atoms: C9_11  and  O4_13
REMARK                            x       y       z     vdW  Elec       q    Type
REMARK                         _______ _______ _______ _____ _____    ______ ____
ROOT
ATOM      1  C3  UNL     1       3.283  -1.897  -3.077  0.00  0.00    +0.146 A 
ATOM      2  C4  UNL     1       1.919  -2.188  -2.965  0.00  0.00    +0.047 A 
ATOM      3  C5  UNL     1       1.026  -1.681  -3.908  0.00  0.00    +0.004 A 
ATOM      4  C6  UNL     1       1.493  -0.878  -4.948  0.00  0.00    +0.001 A 
ATOM      5  C7  UNL     1       2.855  -0.574  -5.047  0.00  0.00    +0.018 A 
ATOM      6  C8  UNL     1       3.768  -1.076  -4.106  0.00  0.00    +0.101 A 
ENDROOT
BRANCH   6   7
ATOM      7  C9  UNL     1       5.212  -0.733  -4.187  0.00  0.00    +0.340 C 
ATOM      8  O3  UNL     1       5.716   0.365  -4.043  0.00  0.00    -0.245 OA
BRANCH   7   9
ATOM      9  O4  UNL     1       5.982  -1.805  -4.457  0.00  0.00    -0.477 OA
ATOM     10  H8  UNL     1       5.359  -2.445  -4.860  0.00  0.00    +0.295 HD
ENDBRANCH   7   9
ENDBRANCH   6   7
BRANCH   1  11
ATOM     11  O2  UNL     1       4.120  -2.412  -2.084  0.00  0.00    -0.425 OA
BRANCH  11  13
ATOM     12  C1  UNL     1       3.990  -4.466  -0.944  0.00  0.00    +0.136 C 
ATOM     13  C2  UNL     1       4.344  -3.777  -2.229  0.00  0.00    +0.309 C 
ATOM     14  O1  UNL     1       4.744  -4.349  -3.234  0.00  0.00    -0.251 OA
ENDBRANCH  11  13
ENDBRANCH   1  11
TORSDOF 4
ENDMDL
