MODEL 6
REMARK VINA RESULT:     0.000      6.481      8.146
REMARK INTER + INTRA:          -0.730
REMARK INTER:                   0.000
REMARK INTRA:                  -0.730
REMARK UNBOUND:                -0.730
REMARK  Name = /tmp/bindforge_docking_3e760bd8-c96f-47fd-9504-fd77fc4f2169/ligand_3bcbf6af.pdb
REMARK  5 active torsions:
REMARK  status: ('A' for Active; 'I' for Inactive)
REMARK    1  A    between atoms: C1_1  and  C2_2
REMARK    2  A    between atoms: C2_2  and  O2_4
REMARK    3  A    between atoms: O2_4  and  C3_5
REMARK    4  A    between atoms: C8_10  and  C9_11
REMARK    5  A    between atoms: C9_11  and  O4_13
REMARK                            x       y       z     vdW  Elec       q    Type
REMARK                         _______ _______ _______ _____ _____    ______ ____
ROOT
ATOM      1  C3  UNL     1       3.747   5.454  -5.682  0.00  0.00    +0.146 A 
ATOM      2  C4  UNL     1       3.466   6.810  -5.490  0.00  0.00    +0.047 A 
ATOM      3  C5  UNL     1       2.335   7.185  -4.766  0.00  0.00    +0.004 A 
ATOM      4  C6  UNL     1       1.485   6.207  -4.249  0.00  0.00    +0.001 A 
ATOM      5  C7  UNL     1       1.759   4.852  -4.459  0.00  0.00    +0.018 A 
ATOM      6  C8  UNL     1       2.893   4.458  -5.186  0.00  0.00    +0.101 A 
ENDROOT
BRANCH   6   7
ATOM      7  C9  UNL     1       3.176   3.020  -5.439  0.00  0.00    +0.340 C 
ATOM      8  O3  UNL     1       2.517   2.249  -6.110  0.00  0.00    -0.245 OA
BRANCH   7   9
ATOM      9  O4  UNL     1       4.296   2.598  -4.821  0.00  0.00    -0.477 OA
ATOM     10  H8  UNL     1       4.619   1.872  -5.394  0.00  0.00    +0.295 HD
ENDBRANCH   7   9
ENDBRANCH   6   7
BRANCH   1  11
ATOM     11  O2  UNL     1       4.880   5.148  -6.442  0.00  0.00    -0.425 OA
BRANCH  11  13
ATOM     12  C1  UNL     1       6.952   6.256  -6.538  0.00  0.00    +0.136 C 
ATOM     13  C2  UNL     1       6.064   5.349  -5.740  0.00  0.00    +0.309 C 
ATOM     14  O1  UNL     1       6.350   4.890  -4.642  0.00  0.00    -0.251 OA
ENDBRANCH  11  13
ENDBRANCH   1  11
TORSDOF 4
ENDMDL
