MODEL 2
REMARK VINA RESULT:     0.000     10.623     12.271
REMARK INTER + INTRA:          -0.730
REMARK INTER:                   0.000
REMARK INTRA:                  -0.730
REMARK UNBOUND:                -0.730
REMARK  Name = /tmp/bindforge_docking_f8e876e0-5b31-4790-b097-d8defbdb7ed2/ligand_6e783504.pdb
REMARK  5 active torsions:
REMARK  status: ('A' for Active; 'I' for Inactive)
REMARK    1  A    between atoms: C1_1  and  C2_2
REMARK    2  A    between atoms: C2_2  and  O2_4
REMARK    3  A    between atoms: O2_4  and  C3_5
REMARK    4  A    between atoms: C8_10  and  C9_11
REMARK    5  A    between atoms: C9_11  and  O4_13
REMARK                            x       y       z     vdW  Elec       q    Type
REMARK                         _______ _______ _______ _____ _____    ______ ____
ROOT
ATOM      1  C3  UNL     1       1.778  -5.473  -6.917  0.00  0.00    +0.146 A 
ATOM      2  C4  UNL     1       0.437  -5.743  -6.624  0.00  0.00    +0.047 A 
ATOM      3  C5  UNL     1       0.110  -6.429  -5.456  0.00  0.00    +0.004 A 
ATOM      4  C6  UNL     1       1.120  -6.855  -4.593  0.00  0.00    +0.001 A 
ATOM      5  C7  UNL     1       2.461  -6.599  -4.898  0.00  0.00    +0.018 A 
ATOM      6  C8  UNL     1       2.808  -5.909  -6.070  0.00  0.00    +0.101 A 
ENDROOT
BRANCH   6   7
ATOM      7  C9  UNL     1       4.232  -5.660  -6.416  0.00  0.00    +0.340 C 
ATOM      8  O3  UNL     1       5.077  -6.491  -6.693  0.00  0.00    -0.245 OA
BRANCH   7   9
ATOM      9  O4  UNL     1       4.547  -4.350  -6.394  0.00  0.00    -0.477 OA
ATOM     10  H8  UNL     1       4.428  -4.097  -5.455  0.00  0.00    +0.295 HD
ENDBRANCH   7   9
ENDBRANCH   6   7
BRANCH   1  11
ATOM     11  O2  UNL     1       2.038  -4.806  -8.117  0.00  0.00    -0.425 OA
BRANCH  11  13
ATOM     12  C1  UNL     1       0.793  -3.120  -9.184  0.00  0.00    +0.136 C 
ATOM     13  C2  UNL     1       1.724  -3.453  -8.056  0.00  0.00    +0.309 C 
ATOM     14  O1  UNL     1       2.112  -2.650  -7.218  0.00  0.00    -0.251 OA
ENDBRANCH  11  13
ENDBRANCH   1  11
TORSDOF 4
ENDMDL
