MODEL 5
REMARK VINA RESULT:     0.000      8.100      9.719
REMARK INTER + INTRA:          -0.141
REMARK INTER:                   0.000
REMARK INTRA:                  -0.141
REMARK UNBOUND:                -0.141
REMARK  Name = /tmp/bindforge_docking_809efb75-dc61-4263-b324-ae7058e65dcb/ligand_d17e0cb4.pdb
REMARK  3 active torsions:
REMARK  status: ('A' for Active; 'I' for Inactive)
REMARK    1  A    between atoms: C4_4  and  C7_7
REMARK    2  A    between atoms: C7_7  and  C8_8
REMARK    3  A    between atoms: C8_8  and  O2_10
REMARK                            x       y       z     vdW  Elec       q    Type
REMARK                         _______ _______ _______ _____ _____    ______ ____
ROOT
ATOM      1  C1  UNL     1       1.879   4.346   2.184  0.00  0.00    +0.000 A 
ATOM      2  C2  UNL     1       1.737   3.221   2.993  0.00  0.00    +0.000 A 
ATOM      3  C3  UNL     1       2.866   2.572   3.494  0.00  0.00    +0.004 A 
ATOM      4  C4  UNL     1       4.150   3.040   3.186  0.00  0.00    -0.037 A 
ATOM      5  C5  UNL     1       4.283   4.179   2.378  0.00  0.00    +0.004 A 
ATOM      6  C6  UNL     1       3.152   4.826   1.878  0.00  0.00    +0.000 A 
ENDROOT
BRANCH   4   7
ATOM      7  C7  UNL     1       5.372   2.345   3.736  0.00  0.00    +0.155 C 
BRANCH   7   8
ATOM      8  C8  UNL     1       6.284   3.244   4.534  0.00  0.00    +0.309 C 
ATOM      9  O1  UNL     1       7.421   3.599   4.274  0.00  0.00    -0.251 OA
BRANCH   8  10
ATOM     10  O2  UNL     1       5.693   3.671   5.672  0.00  0.00    -0.480 OA
ATOM     11  H8  UNL     1       5.863   4.637   5.670  0.00  0.00    +0.295 HD
ENDBRANCH   8  10
ENDBRANCH   7   8
ENDBRANCH   4   7
TORSDOF 3
ENDMDL
