MODEL 7
REMARK VINA RESULT:     0.000      4.707      5.490
REMARK INTER + INTRA:          -0.377
REMARK INTER:                   0.000
REMARK INTRA:                  -0.377
REMARK UNBOUND:                -0.377
REMARK  Name = /tmp/bindforge_docking_3310986b-c235-4533-8ff8-d231779e240c/ligand_7f873e9b.pdb
REMARK  4 active torsions:
REMARK  status: ('A' for Active; 'I' for Inactive)
REMARK    1  A    between atoms: C1_1  and  C2_2
REMARK    2  A    between atoms: C5_5  and  S1_8
REMARK    3  A    between atoms: S1_8  and  N1_11
REMARK    4  A    between atoms: N2_14  and  N3_15
REMARK                            x       y       z     vdW  Elec       q    Type
REMARK                         _______ _______ _______ _____ _____    ______ ____
ROOT
ATOM      1  N1  UNL     1       0.645   2.665   2.497  0.00  0.00    -0.168 N 
ATOM      2  C8  UNL     1      -0.036   2.561   3.707  0.00  0.00    +0.333 C 
ATOM      3  O3  UNL     1       0.338   3.115   4.728  0.00  0.00    -0.250 OA
ATOM      4  N2  UNL     1      -1.158   1.760   3.603  0.00  0.00    -0.231 N 
ATOM      5  H8  UNL     1       0.309   2.204   1.666  0.00  0.00    +0.178 HD
ATOM      6  H9  UNL     1      -1.388   1.321   2.722  0.00  0.00    +0.171 HD
ENDROOT
BRANCH   4   7
ATOM      7  N3  UNL     1      -1.986   1.537   4.720  0.00  0.00    -0.226 NA
ATOM      8  C9  UNL     1      -2.339   0.117   4.848  0.00  0.00    +0.105 C 
ATOM      9  C10 UNL     1      -3.165  -0.135   6.109  0.00  0.00    +0.017 C 
ATOM     10  C11 UNL     1      -4.405   0.753   6.147  0.00  0.00    +0.003 C 
ATOM     11  C12 UNL     1      -4.021   2.215   5.949  0.00  0.00    +0.017 C 
ATOM     12  C13 UNL     1      -3.172   2.403   4.692  0.00  0.00    +0.105 C 
ENDBRANCH   4   7
BRANCH   1  13
ATOM     13  S1  UNL     1       2.039   3.563   2.333  0.00  0.00    +0.076 S 
ATOM     14  O1  UNL     1       3.106   2.925   3.070  0.00  0.00    -0.150 OA
ATOM     15  O2  UNL     1       1.723   4.967   2.467  0.00  0.00    -0.150 OA
BRANCH  13  20
ATOM     16  C1  UNL     1       3.166   2.613  -3.564  0.00  0.00    +0.044 C 
ATOM     17  C2  UNL     1       2.905   2.823  -2.100  0.00  0.00    -0.050 A 
ATOM     18  C3  UNL     1       1.776   2.251  -1.495  0.00  0.00    +0.005 A 
ATOM     19  C4  UNL     1       1.508   2.476  -0.144  0.00  0.00    +0.029 A 
ATOM     20  C5  UNL     1       2.373   3.279   0.602  0.00  0.00    +0.109 A 
ATOM     21  C6  UNL     1       3.487   3.878   0.007  0.00  0.00    +0.029 A 
ATOM     22  C7  UNL     1       3.748   3.648  -1.344  0.00  0.00    +0.005 A 
ENDBRANCH  13  20
ENDBRANCH   1  13
TORSDOF 3
ENDMDL
