MODEL 9
REMARK VINA RESULT:     0.001      9.991     11.375
REMARK INTER + INTRA:          -0.729
REMARK INTER:                   0.000
REMARK INTRA:                  -0.729
REMARK UNBOUND:                -0.730
REMARK  Name = /tmp/bindforge_docking_624297ad-3f37-4fec-b288-97d5b5a1d698/ligand_3444761d.pdb
REMARK  5 active torsions:
REMARK  status: ('A' for Active; 'I' for Inactive)
REMARK    1  A    between atoms: C1_1  and  C2_2
REMARK    2  A    between atoms: C2_2  and  O2_4
REMARK    3  A    between atoms: O2_4  and  C3_5
REMARK    4  A    between atoms: C8_10  and  C9_11
REMARK    5  A    between atoms: C9_11  and  O4_13
REMARK                            x       y       z     vdW  Elec       q    Type
REMARK                         _______ _______ _______ _____ _____    ______ ____
ROOT
ATOM      1  C3  UNL     1       8.074   0.190   2.418  0.00  0.00    +0.146 A 
ATOM      2  C4  UNL     1       7.944   1.543   2.085  0.00  0.00    +0.047 A 
ATOM      3  C5  UNL     1       6.990   1.933   1.147  0.00  0.00    +0.004 A 
ATOM      4  C6  UNL     1       6.180   0.974   0.537  0.00  0.00    +0.001 A 
ATOM      5  C7  UNL     1       6.326  -0.379   0.859  0.00  0.00    +0.018 A 
ATOM      6  C8  UNL     1       7.282  -0.789   1.801  0.00  0.00    +0.101 A 
ENDROOT
BRANCH   6   7
ATOM      7  C9  UNL     1       7.463  -2.229   2.127  0.00  0.00    +0.340 C 
ATOM      8  O3  UNL     1       7.865  -3.105   1.385  0.00  0.00    -0.245 OA
BRANCH   7   9
ATOM      9  O4  UNL     1       7.120  -2.517   3.398  0.00  0.00    -0.477 OA
ATOM     10  H8  UNL     1       7.829  -3.123   3.699  0.00  0.00    +0.295 HD
ENDBRANCH   7   9
ENDBRANCH   6   7
BRANCH   1  11
ATOM     11  O2  UNL     1       9.069  -0.136   3.344  0.00  0.00    -0.425 OA
BRANCH  11  13
ATOM     12  C1  UNL     1       9.803   1.066   5.227  0.00  0.00    +0.136 C 
ATOM     13  C2  UNL     1       8.721   0.206   4.646  0.00  0.00    +0.309 C 
ATOM     14  O1  UNL     1       7.697  -0.111   5.236  0.00  0.00    -0.251 OA
ENDBRANCH  11  13
ENDBRANCH   1  11
TORSDOF 4
ENDMDL
