MODEL 8
REMARK VINA RESULT:     0.000      8.201      9.160
REMARK INTER + INTRA:          -0.141
REMARK INTER:                   0.000
REMARK INTRA:                  -0.141
REMARK UNBOUND:                -0.141
REMARK  Name = /tmp/bindforge_docking_809efb75-dc61-4263-b324-ae7058e65dcb/ligand_d17e0cb4.pdb
REMARK  3 active torsions:
REMARK  status: ('A' for Active; 'I' for Inactive)
REMARK    1  A    between atoms: C4_4  and  C7_7
REMARK    2  A    between atoms: C7_7  and  C8_8
REMARK    3  A    between atoms: C8_8  and  O2_10
REMARK                            x       y       z     vdW  Elec       q    Type
REMARK                         _______ _______ _______ _____ _____    ______ ____
ROOT
ATOM      1  C1  UNL     1       2.019   2.247   5.023  0.00  0.00    +0.000 A 
ATOM      2  C2  UNL     1       1.339   1.700   3.937  0.00  0.00    +0.000 A 
ATOM      3  C3  UNL     1       0.724   0.452   4.053  0.00  0.00    +0.004 A 
ATOM      4  C4  UNL     1       0.788  -0.262   5.257  0.00  0.00    -0.037 A 
ATOM      5  C5  UNL     1       1.467   0.301   6.347  0.00  0.00    +0.004 A 
ATOM      6  C6  UNL     1       2.082   1.549   6.228  0.00  0.00    +0.000 A 
ENDROOT
BRANCH   4   7
ATOM      7  C7  UNL     1       0.114  -1.607   5.387  0.00  0.00    +0.155 C 
BRANCH   7   8
ATOM      8  C8  UNL     1      -0.889  -1.686   6.511  0.00  0.00    +0.309 C 
ATOM      9  O1  UNL     1      -0.841  -2.355   7.528  0.00  0.00    -0.251 OA
BRANCH   8  10
ATOM     10  O2  UNL     1      -1.953  -0.881   6.288  0.00  0.00    -0.480 OA
ATOM     11  H8  UNL     1      -2.427  -1.327   5.555  0.00  0.00    +0.295 HD
ENDBRANCH   8  10
ENDBRANCH   7   8
ENDBRANCH   4   7
TORSDOF 3
ENDMDL
