MODEL 2
REMARK VINA RESULT:     0.000      6.933     10.226
REMARK INTER + INTRA:          -0.377
REMARK INTER:                   0.000
REMARK INTRA:                  -0.377
REMARK UNBOUND:                -0.377
REMARK  Name = /tmp/bindforge_docking_3310986b-c235-4533-8ff8-d231779e240c/ligand_7f873e9b.pdb
REMARK  4 active torsions:
REMARK  status: ('A' for Active; 'I' for Inactive)
REMARK    1  A    between atoms: C1_1  and  C2_2
REMARK    2  A    between atoms: C5_5  and  S1_8
REMARK    3  A    between atoms: S1_8  and  N1_11
REMARK    4  A    between atoms: N2_14  and  N3_15
REMARK                            x       y       z     vdW  Elec       q    Type
REMARK                         _______ _______ _______ _____ _____    ______ ____
ROOT
ATOM      1  N1  UNL     1       1.082   5.438   4.007  0.00  0.00    -0.168 N 
ATOM      2  C8  UNL     1       2.471   5.392   3.923  0.00  0.00    +0.333 C 
ATOM      3  O3  UNL     1       3.113   4.370   4.101  0.00  0.00    -0.250 OA
ATOM      4  N2  UNL     1       3.013   6.630   3.628  0.00  0.00    -0.231 N 
ATOM      5  H8  UNL     1       0.575   6.295   3.846  0.00  0.00    +0.178 HD
ATOM      6  H9  UNL     1       2.411   7.433   3.513  0.00  0.00    +0.171 HD
ENDROOT
BRANCH   4   7
ATOM      7  N3  UNL     1       4.405   6.789   3.492  0.00  0.00    -0.226 NA
ATOM      8  C9  UNL     1       4.878   7.981   4.208  0.00  0.00    +0.105 C 
ATOM      9  C10 UNL     1       6.400   8.103   4.132  0.00  0.00    +0.017 C 
ATOM     10  C11 UNL     1       6.887   8.090   2.687  0.00  0.00    +0.003 C 
ATOM     11  C12 UNL     1       6.333   6.878   1.947  0.00  0.00    +0.017 C 
ATOM     12  C13 UNL     1       4.813   6.790   2.082  0.00  0.00    +0.105 C 
ENDBRANCH   4   7
BRANCH   1  13
ATOM     13  S1  UNL     1       0.166   4.091   4.358  0.00  0.00    +0.076 S 
ATOM     14  O1  UNL     1       0.401   3.699   5.730  0.00  0.00    -0.150 OA
ATOM     15  O2  UNL     1       0.236   3.162   3.253  0.00  0.00    -0.150 OA
BRANCH  13  20
ATOM     16  C1  UNL     1      -5.383   6.566   4.168  0.00  0.00    +0.044 C 
ATOM     17  C2  UNL     1      -4.011   5.961   4.245  0.00  0.00    -0.050 A 
ATOM     18  C3  UNL     1      -2.877   6.748   3.999  0.00  0.00    +0.005 A 
ATOM     19  C4  UNL     1      -1.602   6.181   4.031  0.00  0.00    +0.029 A 
ATOM     20  C5  UNL     1      -1.464   4.820   4.308  0.00  0.00    +0.109 A 
ATOM     21  C6  UNL     1      -2.586   4.016   4.528  0.00  0.00    +0.029 A 
ATOM     22  C7  UNL     1      -3.857   4.590   4.495  0.00  0.00    +0.005 A 
ENDBRANCH  13  20
ENDBRANCH   1  13
TORSDOF 3
ENDMDL
