MODEL 9
REMARK VINA RESULT:     0.001      7.664      9.102
REMARK INTER + INTRA:          -0.729
REMARK INTER:                   0.000
REMARK INTRA:                  -0.729
REMARK UNBOUND:                -0.730
REMARK  Name = /tmp/bindforge_docking_ed0b5d0c-ea62-42b5-bd76-fc20bad5d8f7/ligand_3387c0bf.pdb
REMARK  5 active torsions:
REMARK  status: ('A' for Active; 'I' for Inactive)
REMARK    1  A    between atoms: C1_1  and  C2_2
REMARK    2  A    between atoms: C2_2  and  O2_4
REMARK    3  A    between atoms: O2_4  and  C3_5
REMARK    4  A    between atoms: C8_10  and  C9_11
REMARK    5  A    between atoms: C9_11  and  O4_13
REMARK                            x       y       z     vdW  Elec       q    Type
REMARK                         _______ _______ _______ _____ _____    ______ ____
ROOT
ATOM      1  C3  UNL     1      -6.320   0.571  -0.687  0.00  0.00    +0.146 A 
ATOM      2  C4  UNL     1      -7.432  -0.273  -0.786  0.00  0.00    +0.047 A 
ATOM      3  C5  UNL     1      -7.303  -1.625  -0.474  0.00  0.00    +0.004 A 
ATOM      4  C6  UNL     1      -6.065  -2.132  -0.078  0.00  0.00    +0.001 A 
ATOM      5  C7  UNL     1      -4.951  -1.290   0.002  0.00  0.00    +0.018 A 
ATOM      6  C8  UNL     1      -5.064   0.075  -0.309  0.00  0.00    +0.101 A 
ENDROOT
BRANCH   6   7
ATOM      7  C9  UNL     1      -3.879   0.970  -0.254  0.00  0.00    +0.340 C 
ATOM      8  O3  UNL     1      -2.890   0.923  -0.962  0.00  0.00    -0.245 OA
BRANCH   7   9
ATOM      9  O4  UNL     1      -3.982   1.905   0.710  0.00  0.00    -0.477 OA
ATOM     10  H8  UNL     1      -3.200   1.743   1.277  0.00  0.00    +0.295 HD
ENDBRANCH   7   9
ENDBRANCH   6   7
BRANCH   1  11
ATOM     11  O2  UNL     1      -6.512   1.909  -1.041  0.00  0.00    -0.425 OA
BRANCH  11  13
ATOM     12  C1  UNL     1      -8.394   3.282  -0.713  0.00  0.00    +0.136 C 
ATOM     13  C2  UNL     1      -7.208   2.624  -0.073  0.00  0.00    +0.309 C 
ATOM     14  O1  UNL     1      -6.931   2.703   1.117  0.00  0.00    -0.251 OA
ENDBRANCH  11  13
ENDBRANCH   1  11
TORSDOF 4
ENDMDL
