MODEL 8
REMARK VINA RESULT:     0.000      6.806      8.281
REMARK INTER + INTRA:          -0.377
REMARK INTER:                   0.000
REMARK INTRA:                  -0.377
REMARK UNBOUND:                -0.377
REMARK  Name = /tmp/bindforge_docking_3310986b-c235-4533-8ff8-d231779e240c/ligand_7f873e9b.pdb
REMARK  4 active torsions:
REMARK  status: ('A' for Active; 'I' for Inactive)
REMARK    1  A    between atoms: C1_1  and  C2_2
REMARK    2  A    between atoms: C5_5  and  S1_8
REMARK    3  A    between atoms: S1_8  and  N1_11
REMARK    4  A    between atoms: N2_14  and  N3_15
REMARK                            x       y       z     vdW  Elec       q    Type
REMARK                         _______ _______ _______ _____ _____    ______ ____
ROOT
ATOM      1  N1  UNL     1      -5.115   2.732   2.039  0.00  0.00    -0.168 N 
ATOM      2  C8  UNL     1      -5.650   1.548   1.536  0.00  0.00    +0.333 C 
ATOM      3  O3  UNL     1      -5.519   0.471   2.095  0.00  0.00    -0.250 OA
ATOM      4  N2  UNL     1      -6.324   1.749   0.346  0.00  0.00    -0.231 N 
ATOM      5  H8  UNL     1      -5.247   3.610   1.562  0.00  0.00    +0.178 HD
ATOM      6  H9  UNL     1      -6.371   2.672  -0.061  0.00  0.00    +0.171 HD
ENDROOT
BRANCH   4   7
ATOM      7  N3  UNL     1      -6.944   0.673  -0.317  0.00  0.00    -0.226 NA
ATOM      8  C9  UNL     1      -6.651   0.693  -1.756  0.00  0.00    +0.105 C 
ATOM      9  C10 UNL     1      -7.253  -0.524  -2.459  0.00  0.00    +0.017 C 
ATOM     10  C11 UNL     1      -8.751  -0.634  -2.196  0.00  0.00    +0.003 C 
ATOM     11  C12 UNL     1      -9.035  -0.589  -0.699  0.00  0.00    +0.017 C 
ATOM     12  C13 UNL     1      -8.386   0.630  -0.044  0.00  0.00    +0.105 C 
ENDBRANCH   4   7
BRANCH   1  13
ATOM     13  S1  UNL     1      -4.245   2.784   3.459  0.00  0.00    +0.076 S 
ATOM     14  O1  UNL     1      -2.985   2.101   3.271  0.00  0.00    -0.150 OA
ATOM     15  O2  UNL     1      -5.126   2.513   4.572  0.00  0.00    -0.150 OA
BRANCH  13  20
ATOM     16  C1  UNL     1      -3.004   8.731   3.665  0.00  0.00    +0.044 C 
ATOM     17  C2  UNL     1      -3.284   7.258   3.598  0.00  0.00    -0.050 A 
ATOM     18  C3  UNL     1      -4.036   6.728   2.540  0.00  0.00    +0.005 A 
ATOM     19  C4  UNL     1      -4.332   5.365   2.495  0.00  0.00    +0.029 A 
ATOM     20  C5  UNL     1      -3.875   4.530   3.516  0.00  0.00    +0.109 A 
ATOM     21  C6  UNL     1      -3.148   5.046   4.592  0.00  0.00    +0.029 A 
ATOM     22  C7  UNL     1      -2.855   6.411   4.630  0.00  0.00    +0.005 A 
ENDBRANCH  13  20
ENDBRANCH   1  13
TORSDOF 3
ENDMDL
