MODEL 2
REMARK VINA RESULT:     0.000      2.425      2.487
REMARK INTER + INTRA:           0.000
REMARK INTER:                   0.000
REMARK INTRA:                   0.000
REMARK UNBOUND:                 0.000
REMARK  Name = /tmp/bindforge_docking_57f742c7-e041-4c39-9436-d7978010b3bc/ligand_1b8510f5.pdb
REMARK  3 active torsions:
REMARK  status: ('A' for Active; 'I' for Inactive)
REMARK    1  A    between atoms: C1_1  and  C2_2
REMARK    2  A    between atoms: C1_1  and  N1_5
REMARK    3  A    between atoms: C2_2  and  O2_4
REMARK                            x       y       z     vdW  Elec       q    Type
REMARK                         _______ _______ _______ _____ _____    ______ ____
ROOT
ATOM      1  C1  UNL     1      -0.175   9.834   6.118  0.00  0.00    +0.199 C 
ENDROOT
BRANCH   1   2
ATOM      2  N1  UNL     1       0.466   9.862   4.789  0.00  0.00    -0.321 NA
ATOM      3  H4  UNL     1       1.189   9.140   4.771  0.00  0.00    +0.119 HD
ATOM      4  H5  UNL     1       0.991  10.737   4.709  0.00  0.00    +0.119 HD
ENDBRANCH   1   2
BRANCH   1   5
ATOM      5  C2  UNL     1      -1.306   8.817   6.159  0.00  0.00    +0.319 C 
ATOM      6  O1  UNL     1      -1.204   7.621   6.385  0.00  0.00    -0.250 OA
BRANCH   5   7
ATOM      7  O2  UNL     1      -2.509   9.370   5.912  0.00  0.00    -0.480 OA
ATOM      8  H3  UNL     1      -2.314  10.322   5.785  0.00  0.00    +0.295 HD
ENDBRANCH   5   7
ENDBRANCH   1   5
TORSDOF 3
ENDMDL
