MODEL 6
REMARK VINA RESULT:     0.000      9.459     10.675
REMARK INTER + INTRA:          -0.730
REMARK INTER:                   0.000
REMARK INTRA:                  -0.730
REMARK UNBOUND:                -0.730
REMARK  Name = /tmp/bindforge_docking_f8e876e0-5b31-4790-b097-d8defbdb7ed2/ligand_6e783504.pdb
REMARK  5 active torsions:
REMARK  status: ('A' for Active; 'I' for Inactive)
REMARK    1  A    between atoms: C1_1  and  C2_2
REMARK    2  A    between atoms: C2_2  and  O2_4
REMARK    3  A    between atoms: O2_4  and  C3_5
REMARK    4  A    between atoms: C8_10  and  C9_11
REMARK    5  A    between atoms: C9_11  and  O4_13
REMARK                            x       y       z     vdW  Elec       q    Type
REMARK                         _______ _______ _______ _____ _____    ______ ____
ROOT
ATOM      1  C3  UNL     1       1.885  -0.488   4.105  0.00  0.00    +0.146 A 
ATOM      2  C4  UNL     1       2.325  -1.067   5.300  0.00  0.00    +0.047 A 
ATOM      3  C5  UNL     1       1.563  -2.065   5.906  0.00  0.00    +0.004 A 
ATOM      4  C6  UNL     1       0.361  -2.471   5.325  0.00  0.00    +0.001 A 
ATOM      5  C7  UNL     1      -0.085  -1.877   4.140  0.00  0.00    +0.018 A 
ATOM      6  C8  UNL     1       0.670  -0.871   3.518  0.00  0.00    +0.101 A 
ENDROOT
BRANCH   6   7
ATOM      7  C9  UNL     1       0.187  -0.215   2.274  0.00  0.00    +0.340 C 
ATOM      8  O3  UNL     1      -0.796   0.491   2.150  0.00  0.00    -0.245 OA
BRANCH   7   9
ATOM      9  O4  UNL     1       0.973  -0.480   1.212  0.00  0.00    -0.477 OA
ATOM     10  H8  UNL     1       1.852  -0.141   1.482  0.00  0.00    +0.295 HD
ENDBRANCH   7   9
ENDBRANCH   6   7
BRANCH   1  11
ATOM     11  O2  UNL     1       2.681   0.526   3.567  0.00  0.00    -0.425 OA
BRANCH  11  13
ATOM     12  C1  UNL     1       5.024   0.735   3.559  0.00  0.00    +0.136 C 
ATOM     13  C2  UNL     1       3.836   0.037   2.966  0.00  0.00    +0.309 C 
ATOM     14  O1  UNL     1       3.901  -0.834   2.109  0.00  0.00    -0.251 OA
ENDBRANCH  11  13
ENDBRANCH   1  11
TORSDOF 4
ENDMDL
