MODEL 1
REMARK VINA RESULT:    -0.001      0.000      0.000
REMARK INTER + INTRA:          -0.731
REMARK INTER:                   0.000
REMARK INTRA:                  -0.731
REMARK UNBOUND:                -0.730
REMARK  Name = /tmp/bindforge_docking_ed0b5d0c-ea62-42b5-bd76-fc20bad5d8f7/ligand_3387c0bf.pdb
REMARK  5 active torsions:
REMARK  status: ('A' for Active; 'I' for Inactive)
REMARK    1  A    between atoms: C1_1  and  C2_2
REMARK    2  A    between atoms: C2_2  and  O2_4
REMARK    3  A    between atoms: O2_4  and  C3_5
REMARK    4  A    between atoms: C8_10  and  C9_11
REMARK    5  A    between atoms: C9_11  and  O4_13
REMARK                            x       y       z     vdW  Elec       q    Type
REMARK                         _______ _______ _______ _____ _____    ______ ____
ROOT
ATOM      1  C3  UNL     1       0.787  -2.719  -5.602  0.00  0.00    +0.146 A 
ATOM      2  C4  UNL     1      -0.155  -3.715  -5.884  0.00  0.00    +0.047 A 
ATOM      3  C5  UNL     1       0.075  -5.022  -5.461  0.00  0.00    +0.004 A 
ATOM      4  C6  UNL     1       1.247  -5.334  -4.771  0.00  0.00    +0.001 A 
ATOM      5  C7  UNL     1       2.195  -4.340  -4.506  0.00  0.00    +0.018 A 
ATOM      6  C8  UNL     1       1.979  -3.019  -4.926  0.00  0.00    +0.101 A 
ENDROOT
BRANCH   6   7
ATOM      7  C9  UNL     1       2.995  -1.963  -4.674  0.00  0.00    +0.340 C 
ATOM      8  O3  UNL     1       4.116  -1.895  -5.144  0.00  0.00    -0.245 OA
BRANCH   7   9
ATOM      9  O4  UNL     1       2.557  -1.017  -3.822  0.00  0.00    -0.477 OA
ATOM     10  H8  UNL     1       2.283  -0.282  -4.409  0.00  0.00    +0.295 HD
ENDBRANCH   7   9
ENDBRANCH   6   7
BRANCH   1  11
ATOM     11  O2  UNL     1       0.509  -1.436  -6.080  0.00  0.00    -0.425 OA
BRANCH  11  13
ATOM     12  C1  UNL     1      -1.560  -0.332  -6.265  0.00  0.00    +0.136 C 
ATOM     13  C2  UNL     1      -0.475  -0.791  -5.337  0.00  0.00    +0.309 C 
ATOM     14  O1  UNL     1      -0.486  -0.629  -4.124  0.00  0.00    -0.251 OA
ENDBRANCH  11  13
ENDBRANCH   1  11
TORSDOF 4
ENDMDL
