MODEL 4
REMARK VINA RESULT:     0.000      6.151      9.146
REMARK INTER + INTRA:          -0.377
REMARK INTER:                   0.000
REMARK INTRA:                  -0.377
REMARK UNBOUND:                -0.377
REMARK  Name = /tmp/bindforge_docking_3310986b-c235-4533-8ff8-d231779e240c/ligand_7f873e9b.pdb
REMARK  4 active torsions:
REMARK  status: ('A' for Active; 'I' for Inactive)
REMARK    1  A    between atoms: C1_1  and  C2_2
REMARK    2  A    between atoms: C5_5  and  S1_8
REMARK    3  A    between atoms: S1_8  and  N1_11
REMARK    4  A    between atoms: N2_14  and  N3_15
REMARK                            x       y       z     vdW  Elec       q    Type
REMARK                         _______ _______ _______ _____ _____    ______ ____
ROOT
ATOM      1  N1  UNL     1       4.142   4.335  -1.029  0.00  0.00    -0.168 N 
ATOM      2  C8  UNL     1       4.410   4.887  -2.280  0.00  0.00    +0.333 C 
ATOM      3  O3  UNL     1       4.204   4.292  -3.325  0.00  0.00    -0.250 OA
ATOM      4  N2  UNL     1       4.934   6.162  -2.182  0.00  0.00    -0.231 N 
ATOM      5  H8  UNL     1       4.314   4.853  -0.182  0.00  0.00    +0.178 HD
ATOM      6  H9  UNL     1       5.092   6.578  -1.275  0.00  0.00    +0.171 HD
ENDROOT
BRANCH   4   7
ATOM      7  N3  UNL     1       5.263   6.893  -3.340  0.00  0.00    -0.226 NA
ATOM      8  C9  UNL     1       6.578   7.534  -3.211  0.00  0.00    +0.105 C 
ATOM      9  C10 UNL     1       6.971   8.254  -4.501  0.00  0.00    +0.017 C 
ATOM     10  C11 UNL     1       5.902   9.256  -4.926  0.00  0.00    +0.003 C 
ATOM     11  C12 UNL     1       4.536   8.582  -4.992  0.00  0.00    +0.017 C 
ATOM     12  C13 UNL     1       4.209   7.854  -3.689  0.00  0.00    +0.105 C 
ENDBRANCH   4   7
BRANCH   1  13
ATOM     13  S1  UNL     1       3.512   2.804  -0.847  0.00  0.00    +0.076 S 
ATOM     14  O1  UNL     1       4.502   1.830  -1.249  0.00  0.00    -0.150 OA
ATOM     15  O2  UNL     1       2.150   2.786  -1.332  0.00  0.00    -0.150 OA
BRANCH  13  20
ATOM     16  C1  UNL     1       3.175   2.565   5.217  0.00  0.00    +0.044 C 
ATOM     17  C2  UNL     1       3.287   2.612   3.720  0.00  0.00    -0.050 A 
ATOM     18  C3  UNL     1       3.768   3.765   3.084  0.00  0.00    +0.005 A 
ATOM     19  C4  UNL     1       3.837   3.828   1.691  0.00  0.00    +0.029 A 
ATOM     20  C5  UNL     1       3.418   2.732   0.934  0.00  0.00    +0.109 A 
ATOM     21  C6  UNL     1       2.910   1.586   1.552  0.00  0.00    +0.029 A 
ATOM     22  C7  UNL     1       2.845   1.530   2.945  0.00  0.00    +0.005 A 
ENDBRANCH  13  20
ENDBRANCH   1  13
TORSDOF 3
ENDMDL
