MODEL 2
REMARK VINA RESULT:    -0.001      9.359     10.933
REMARK INTER + INTRA:          -0.730
REMARK INTER:                   0.000
REMARK INTRA:                  -0.730
REMARK UNBOUND:                -0.729
REMARK  Name = /tmp/bindforge_docking_4a3d891c-9d04-4ccd-9b83-baedc18b2c32/ligand_5ecf586d.pdb
REMARK  5 active torsions:
REMARK  status: ('A' for Active; 'I' for Inactive)
REMARK    1  A    between atoms: C1_1  and  C2_2
REMARK    2  A    between atoms: C2_2  and  O2_4
REMARK    3  A    between atoms: O2_4  and  C3_5
REMARK    4  A    between atoms: C8_10  and  C9_11
REMARK    5  A    between atoms: C9_11  and  O4_13
REMARK                            x       y       z     vdW  Elec       q    Type
REMARK                         _______ _______ _______ _____ _____    ______ ____
ROOT
ATOM      1  C3  UNL     1       6.747  -8.078   0.337  0.00  0.00    +0.146 A 
ATOM      2  C4  UNL     1       7.559  -8.244  -0.790  0.00  0.00    +0.047 A 
ATOM      3  C5  UNL     1       8.726  -8.999  -0.695  0.00  0.00    +0.004 A 
ATOM      4  C6  UNL     1       9.086  -9.573   0.525  0.00  0.00    +0.001 A 
ATOM      5  C7  UNL     1       8.282  -9.390   1.654  0.00  0.00    +0.018 A 
ATOM      6  C8  UNL     1       7.103  -8.633   1.575  0.00  0.00    +0.101 A 
ENDROOT
BRANCH   6   7
ATOM      7  C9  UNL     1       6.258  -8.409   2.778  0.00  0.00    +0.340 C 
ATOM      8  O3  UNL     1       6.555  -7.784   3.779  0.00  0.00    -0.245 OA
BRANCH   7   9
ATOM      9  O4  UNL     1       5.050  -8.997   2.677  0.00  0.00    -0.477 OA
ATOM     10  H8  UNL     1       5.250  -9.954   2.741  0.00  0.00    +0.295 HD
ENDBRANCH   7   9
ENDBRANCH   6   7
BRANCH   1  11
ATOM     11  O2  UNL     1       5.606  -7.287   0.180  0.00  0.00    -0.425 OA
BRANCH  11  13
ATOM     12  C1  UNL     1       4.178  -7.084  -1.678  0.00  0.00    +0.136 C 
ATOM     13  C2  UNL     1       4.595  -7.938  -0.518  0.00  0.00    +0.309 C 
ATOM     14  O1  UNL     1       4.121  -9.037  -0.261  0.00  0.00    -0.251 OA
ENDBRANCH  11  13
ENDBRANCH   1  11
TORSDOF 4
ENDMDL
