MODEL 3
REMARK VINA RESULT:    -0.000      5.630      7.950
REMARK INTER + INTRA:          -0.598
REMARK INTER:                   0.000
REMARK INTRA:                  -0.598
REMARK UNBOUND:                -0.598
REMARK  Name = /tmp/bindforge_docking_1d48d786-830f-4031-a0c5-8533277a4919/ligand_8ac72b02.pdb
REMARK  8 active torsions:
REMARK  status: ('A' for Active; 'I' for Inactive)
REMARK    1  A    between atoms: C1_1  and  C2_2
REMARK    2  A    between atoms: C2_2  and  C3_3
REMARK    3  A    between atoms: C2_2  and  C4_4
REMARK    4  A    between atoms: C4_4  and  C5_5
REMARK    5  A    between atoms: C8_8  and  C11_11
REMARK    6  A    between atoms: C11_11  and  C12_12
REMARK    7  A    between atoms: C11_11  and  C13_13
REMARK    8  A    between atoms: C13_13  and  O2_15
REMARK                            x       y       z     vdW  Elec       q    Type
REMARK                         _______ _______ _______ _____ _____    ______ ____
ROOT
ATOM      1  C5  UNL     1      -0.692  -2.018  -5.636  0.00  0.00    -0.047 A 
ATOM      2  C6  UNL     1      -1.098  -2.662  -4.462  0.00  0.00    +0.004 A 
ATOM      3  C7  UNL     1      -1.451  -4.015  -4.480  0.00  0.00    +0.005 A 
ATOM      4  C8  UNL     1      -1.407  -4.754  -5.671  0.00  0.00    -0.034 A 
ATOM      5  C9  UNL     1      -1.003  -4.102  -6.845  0.00  0.00    +0.005 A 
ATOM      6  C10 UNL     1      -0.648  -2.750  -6.827  0.00  0.00    +0.004 A 
ENDROOT
BRANCH   4   7
ATOM      7  C11 UNL     1      -1.775  -6.229  -5.714  0.00  0.00    +0.124 C 
ATOM      8  C12 UNL     1      -1.647  -6.805  -7.124  0.00  0.00    +0.024 C 
BRANCH   7   9
ATOM      9  C13 UNL     1      -0.969  -7.081  -4.749  0.00  0.00    +0.312 C 
ATOM     10  O1  UNL     1      -1.355  -7.661  -3.748  0.00  0.00    -0.250 OA
BRANCH   9  11
ATOM     11  O2  UNL     1       0.343  -7.121  -5.077  0.00  0.00    -0.480 OA
ATOM     12  H18 UNL     1       0.658  -7.949  -4.658  0.00  0.00    +0.295 HD
ENDBRANCH   9  11
ENDBRANCH   7   9
ENDBRANCH   4   7
BRANCH   1  13
ATOM     13  C4  UNL     1      -0.306  -0.558  -5.617  0.00  0.00    +0.038 C 
BRANCH  13  15
ATOM     14  C1  UNL     1       2.142  -0.832  -5.120  0.00  0.00    +0.007 C 
ATOM     15  C2  UNL     1       0.827  -0.225  -4.626  0.00  0.00    -0.013 C 
ATOM     16  C3  UNL     1       0.994   1.284  -4.434  0.00  0.00    +0.007 C 
ENDBRANCH  13  15
ENDBRANCH   1  13
TORSDOF 5
ENDMDL
