MODEL 2
REMARK VINA RESULT:    -0.000     10.535     11.676
REMARK INTER + INTRA:          -0.141
REMARK INTER:                   0.000
REMARK INTRA:                  -0.141
REMARK UNBOUND:                -0.141
REMARK  Name = /tmp/bindforge_docking_2ec5c8af-c38e-41dd-b776-c04cb87561df/ligand_a50034be.pdb
REMARK  3 active torsions:
REMARK  status: ('A' for Active; 'I' for Inactive)
REMARK    1  A    between atoms: C4_4  and  C7_7
REMARK    2  A    between atoms: C7_7  and  C8_8
REMARK    3  A    between atoms: C8_8  and  O2_10
REMARK                            x       y       z     vdW  Elec       q    Type
REMARK                         _______ _______ _______ _____ _____    ______ ____
ROOT
ATOM      1  C1  UNL     1       5.124   7.555   0.926  0.00  0.00    +0.000 A 
ATOM      2  C2  UNL     1       6.009   6.626   1.468  0.00  0.00    +0.000 A 
ATOM      3  C3  UNL     1       6.378   6.713   2.811  0.00  0.00    +0.004 A 
ATOM      4  C4  UNL     1       5.868   7.733   3.624  0.00  0.00    -0.037 A 
ATOM      5  C5  UNL     1       4.970   8.658   3.071  0.00  0.00    +0.004 A 
ATOM      6  C6  UNL     1       4.603   8.570   1.727  0.00  0.00    +0.000 A 
ENDROOT
BRANCH   4   7
ATOM      7  C7  UNL     1       6.257   7.821   5.080  0.00  0.00    +0.155 C 
BRANCH   7   8
ATOM      8  C8  UNL     1       5.087   7.796   6.033  0.00  0.00    +0.309 C 
ATOM      9  O1  UNL     1       4.689   8.679   6.773  0.00  0.00    -0.251 OA
BRANCH   8  10
ATOM     10  O2  UNL     1       4.447   6.605   6.005  0.00  0.00    -0.480 OA
ATOM     11  H8  UNL     1       5.016   6.027   6.556  0.00  0.00    +0.295 HD
ENDBRANCH   8  10
ENDBRANCH   7   8
ENDBRANCH   4   7
TORSDOF 3
ENDMDL
