MODEL 4
REMARK VINA RESULT:     0.000      4.709      5.088
REMARK INTER + INTRA:           0.000
REMARK INTER:                   0.000
REMARK INTRA:                   0.000
REMARK UNBOUND:                 0.000
REMARK  Name = /tmp/bindforge_docking_e7faa7d1-a6b1-4d85-9ed3-23c9d9d6b59f/ligand_380a1b5a.pdb
REMARK  3 active torsions:
REMARK  status: ('A' for Active; 'I' for Inactive)
REMARK    1  A    between atoms: C1_1  and  C2_2
REMARK    2  A    between atoms: C1_1  and  N1_5
REMARK    3  A    between atoms: C2_2  and  O2_4
REMARK                            x       y       z     vdW  Elec       q    Type
REMARK                         _______ _______ _______ _____ _____    ______ ____
ROOT
ATOM      1  C1  UNL     1      -4.832   3.595   7.469  0.00  0.00    +0.199 C 
ENDROOT
BRANCH   1   2
ATOM      2  N1  UNL     1      -4.168   3.644   6.153  0.00  0.00    -0.321 NA
ATOM      3  H4  UNL     1      -3.744   4.569   6.046  0.00  0.00    +0.119 HD
ATOM      4  H5  UNL     1      -4.893   3.622   5.432  0.00  0.00    +0.119 HD
ENDBRANCH   1   2
BRANCH   1   5
ATOM      5  C2  UNL     1      -3.875   3.109   8.548  0.00  0.00    +0.319 C 
ATOM      6  O1  UNL     1      -3.684   1.951   8.887  0.00  0.00    -0.250 OA
BRANCH   5   7
ATOM      7  O2  UNL     1      -3.207   4.117   9.142  0.00  0.00    -0.480 OA
ATOM      8  H3  UNL     1      -3.802   4.890   9.041  0.00  0.00    +0.295 HD
ENDBRANCH   5   7
ENDBRANCH   1   5
TORSDOF 3
ENDMDL
