MODEL 2
REMARK VINA RESULT:    -0.001      2.094      2.349
REMARK INTER + INTRA:          -0.731
REMARK INTER:                   0.000
REMARK INTRA:                  -0.731
REMARK UNBOUND:                -0.730
REMARK  Name = /tmp/bindforge_docking_68596179-1fb9-47ff-b18e-febccc65ad33/ligand_d1b4f9d2.pdb
REMARK  5 active torsions:
REMARK  status: ('A' for Active; 'I' for Inactive)
REMARK    1  A    between atoms: C1_1  and  C2_2
REMARK    2  A    between atoms: C2_2  and  O2_4
REMARK    3  A    between atoms: O2_4  and  C3_5
REMARK    4  A    between atoms: C8_10  and  C9_11
REMARK    5  A    between atoms: C9_11  and  O4_13
REMARK                            x       y       z     vdW  Elec       q    Type
REMARK                         _______ _______ _______ _____ _____    ______ ____
ROOT
ATOM      1  C3  UNL     1       3.240   0.315   0.836  0.00  0.00    +0.146 A 
ATOM      2  C4  UNL     1       4.563   0.383   1.285  0.00  0.00    +0.047 A 
ATOM      3  C5  UNL     1       4.869   0.001   2.590  0.00  0.00    +0.004 A 
ATOM      4  C6  UNL     1       3.856  -0.432   3.444  0.00  0.00    +0.001 A 
ATOM      5  C7  UNL     1       2.531  -0.481   2.998  0.00  0.00    +0.018 A 
ATOM      6  C8  UNL     1       2.205  -0.100   1.687  0.00  0.00    +0.101 A 
ENDROOT
BRANCH   6   7
ATOM      7  C9  UNL     1       0.795  -0.121   1.215  0.00  0.00    +0.340 C 
ATOM      8  O3  UNL     1      -0.122   0.573   1.611  0.00  0.00    -0.245 OA
BRANCH   7   9
ATOM      9  O4  UNL     1       0.589  -1.036   0.248  0.00  0.00    -0.477 OA
ATOM     10  H8  UNL     1       0.097  -0.541  -0.440  0.00  0.00    +0.295 HD
ENDBRANCH   7   9
ENDBRANCH   6   7
BRANCH   1  11
ATOM     11  O2  UNL     1       2.997   0.739  -0.473  0.00  0.00    -0.425 OA
BRANCH  11  13
ATOM     12  C1  UNL     1       4.340   0.500  -2.389  0.00  0.00    +0.136 C 
ATOM     13  C2  UNL     1       3.422  -0.185  -1.422  0.00  0.00    +0.309 C 
ATOM     14  O1  UNL     1       3.126  -1.372  -1.469  0.00  0.00    -0.251 OA
ENDBRANCH  11  13
ENDBRANCH   1  11
TORSDOF 4
ENDMDL
