MODEL 3
REMARK VINA RESULT:    -0.001     10.943     13.152
REMARK INTER + INTRA:          -0.730
REMARK INTER:                   0.000
REMARK INTRA:                  -0.730
REMARK UNBOUND:                -0.729
REMARK  Name = /tmp/bindforge_docking_9d79cdd4-c013-4c61-900a-f0d1f6bd7daa/ligand_25ba65cd.pdb
REMARK  5 active torsions:
REMARK  status: ('A' for Active; 'I' for Inactive)
REMARK    1  A    between atoms: C1_1  and  C2_2
REMARK    2  A    between atoms: C2_2  and  O2_4
REMARK    3  A    between atoms: O2_4  and  C3_5
REMARK    4  A    between atoms: C8_10  and  C9_11
REMARK    5  A    between atoms: C9_11  and  O4_13
REMARK                            x       y       z     vdW  Elec       q    Type
REMARK                         _______ _______ _______ _____ _____    ______ ____
ROOT
ATOM      1  C3  UNL     1      -0.902  -3.747  -2.044  0.00  0.00    +0.146 A 
ATOM      2  C4  UNL     1      -0.775  -3.505  -3.417  0.00  0.00    +0.047 A 
ATOM      3  C5  UNL     1      -1.516  -4.262  -4.322  0.00  0.00    +0.004 A 
ATOM      4  C6  UNL     1      -2.368  -5.264  -3.858  0.00  0.00    +0.001 A 
ATOM      5  C7  UNL     1      -2.479  -5.516  -2.487  0.00  0.00    +0.018 A 
ATOM      6  C8  UNL     1      -1.740  -4.763  -1.561  0.00  0.00    +0.101 A 
ENDROOT
BRANCH   6   7
ATOM      7  C9  UNL     1      -1.830  -5.044  -0.104  0.00  0.00    +0.340 C 
ATOM      8  O3  UNL     1      -1.466  -6.051   0.474  0.00  0.00    -0.245 OA
BRANCH   7   9
ATOM      9  O4  UNL     1      -2.389  -4.029   0.584  0.00  0.00    -0.477 OA
ATOM     10  H8  UNL     1      -1.643  -3.413   0.739  0.00  0.00    +0.295 HD
ENDBRANCH   7   9
ENDBRANCH   6   7
BRANCH   1  11
ATOM     11  O2  UNL     1      -0.111  -2.972  -1.193  0.00  0.00    -0.425 OA
BRANCH  11  13
ATOM     12  C1  UNL     1       0.525  -0.716  -1.394  0.00  0.00    +0.136 C 
ATOM     13  C2  UNL     1      -0.583  -1.670  -1.061  0.00  0.00    +0.309 C 
ATOM     14  O1  UNL     1      -1.717  -1.332  -0.748  0.00  0.00    -0.251 OA
ENDBRANCH  11  13
ENDBRANCH   1  11
TORSDOF 4
ENDMDL
