MODEL 3
REMARK VINA RESULT:    -0.000     11.955     13.473
REMARK INTER + INTRA:          -0.730
REMARK INTER:                   0.000
REMARK INTRA:                  -0.730
REMARK UNBOUND:                -0.730
REMARK  Name = /tmp/bindforge_docking_ed0b5d0c-ea62-42b5-bd76-fc20bad5d8f7/ligand_3387c0bf.pdb
REMARK  5 active torsions:
REMARK  status: ('A' for Active; 'I' for Inactive)
REMARK    1  A    between atoms: C1_1  and  C2_2
REMARK    2  A    between atoms: C2_2  and  O2_4
REMARK    3  A    between atoms: O2_4  and  C3_5
REMARK    4  A    between atoms: C8_10  and  C9_11
REMARK    5  A    between atoms: C9_11  and  O4_13
REMARK                            x       y       z     vdW  Elec       q    Type
REMARK                         _______ _______ _______ _____ _____    ______ ____
ROOT
ATOM      1  C3  UNL     1      -3.473   4.641   5.491  0.00  0.00    +0.146 A 
ATOM      2  C4  UNL     1      -2.864   4.979   6.704  0.00  0.00    +0.047 A 
ATOM      3  C5  UNL     1      -1.510   4.708   6.896  0.00  0.00    +0.004 A 
ATOM      4  C6  UNL     1      -0.774   4.091   5.884  0.00  0.00    +0.001 A 
ATOM      5  C7  UNL     1      -1.390   3.738   4.679  0.00  0.00    +0.018 A 
ATOM      6  C8  UNL     1      -2.753   4.003   4.470  0.00  0.00    +0.101 A 
ENDROOT
BRANCH   6   7
ATOM      7  C9  UNL     1      -3.422   3.604   3.204  0.00  0.00    +0.340 C 
ATOM      8  O3  UNL     1      -3.612   2.473   2.799  0.00  0.00    -0.245 OA
BRANCH   7   9
ATOM      9  O4  UNL     1      -3.829   4.664   2.479  0.00  0.00    -0.477 OA
ATOM     10  H8  UNL     1      -4.713   4.871   2.846  0.00  0.00    +0.295 HD
ENDBRANCH   7   9
ENDBRANCH   6   7
BRANCH   1  11
ATOM     11  O2  UNL     1      -4.839   4.913   5.375  0.00  0.00    -0.425 OA
BRANCH  11  13
ATOM     12  C1  UNL     1      -6.075   6.719   6.237  0.00  0.00    +0.136 C 
ATOM     13  C2  UNL     1      -5.100   6.267   5.191  0.00  0.00    +0.309 C 
ATOM     14  O1  UNL     1      -4.612   6.995   4.337  0.00  0.00    -0.251 OA
ENDBRANCH  11  13
ENDBRANCH   1  11
TORSDOF 4
ENDMDL
