MODEL 4
REMARK VINA RESULT:     0.000     10.792     12.493
REMARK INTER + INTRA:          -0.730
REMARK INTER:                   0.000
REMARK INTRA:                  -0.730
REMARK UNBOUND:                -0.730
REMARK  Name = /tmp/bindforge_docking_f8e876e0-5b31-4790-b097-d8defbdb7ed2/ligand_6e783504.pdb
REMARK  5 active torsions:
REMARK  status: ('A' for Active; 'I' for Inactive)
REMARK    1  A    between atoms: C1_1  and  C2_2
REMARK    2  A    between atoms: C2_2  and  O2_4
REMARK    3  A    between atoms: O2_4  and  C3_5
REMARK    4  A    between atoms: C8_10  and  C9_11
REMARK    5  A    between atoms: C9_11  and  O4_13
REMARK                            x       y       z     vdW  Elec       q    Type
REMARK                         _______ _______ _______ _____ _____    ______ ____
ROOT
ATOM      1  C3  UNL     1       4.135  -4.269   0.532  0.00  0.00    +0.146 A 
ATOM      2  C4  UNL     1       4.748  -4.488   1.770  0.00  0.00    +0.047 A 
ATOM      3  C5  UNL     1       6.091  -4.158   1.944  0.00  0.00    +0.004 A 
ATOM      4  C6  UNL     1       6.819  -3.624   0.880  0.00  0.00    +0.001 A 
ATOM      5  C7  UNL     1       6.208  -3.423  -0.362  0.00  0.00    +0.018 A 
ATOM      6  C8  UNL     1       4.857  -3.751  -0.553  0.00  0.00    +0.101 A 
ENDROOT
BRANCH   6   7
ATOM      7  C9  UNL     1       4.208  -3.568  -1.879  0.00  0.00    +0.340 C 
ATOM      8  O3  UNL     1       4.465  -4.160  -2.910  0.00  0.00    -0.245 OA
BRANCH   7   9
ATOM      9  O4  UNL     1       3.246  -2.625  -1.856  0.00  0.00    -0.477 OA
ATOM     10  H8  UNL     1       3.544  -2.004  -1.159  0.00  0.00    +0.295 HD
ENDBRANCH   7   9
ENDBRANCH   6   7
BRANCH   1  11
ATOM     11  O2  UNL     1       2.795  -4.649   0.417  0.00  0.00    -0.425 OA
BRANCH  11  13
ATOM     12  C1  UNL     1       1.074  -4.540   2.017  0.00  0.00    +0.136 C 
ATOM     13  C2  UNL     1       1.933  -3.767   1.060  0.00  0.00    +0.309 C 
ATOM     14  O1  UNL     1       1.878  -2.555   0.905  0.00  0.00    -0.251 OA
ENDBRANCH  11  13
ENDBRANCH   1  11
TORSDOF 4
ENDMDL
