MODEL 9
REMARK VINA RESULT:     0.000      5.131      6.455
REMARK INTER + INTRA:          -0.598
REMARK INTER:                   0.000
REMARK INTRA:                  -0.598
REMARK UNBOUND:                -0.598
REMARK  Name = /tmp/bindforge_docking_85f42c74-3822-4c73-aa73-7f7500b3e001/ligand_1e342629.pdb
REMARK  8 active torsions:
REMARK  status: ('A' for Active; 'I' for Inactive)
REMARK    1  A    between atoms: C1_1  and  C2_2
REMARK    2  A    between atoms: C2_2  and  C3_3
REMARK    3  A    between atoms: C2_2  and  C4_4
REMARK    4  A    between atoms: C4_4  and  C5_5
REMARK    5  A    between atoms: C8_8  and  C11_11
REMARK    6  A    between atoms: C11_11  and  C12_12
REMARK    7  A    between atoms: C11_11  and  C13_13
REMARK    8  A    between atoms: C13_13  and  O2_15
REMARK                            x       y       z     vdW  Elec       q    Type
REMARK                         _______ _______ _______ _____ _____    ______ ____
ROOT
ATOM      1  C5  UNL     1       1.240   1.454   0.074  0.00  0.00    -0.047 A 
ATOM      2  C6  UNL     1       2.133   2.404  -0.434  0.00  0.00    +0.004 A 
ATOM      3  C7  UNL     1       1.847   3.770  -0.339  0.00  0.00    +0.005 A 
ATOM      4  C8  UNL     1       0.663   4.216   0.264  0.00  0.00    -0.034 A 
ATOM      5  C9  UNL     1      -0.230   3.259   0.769  0.00  0.00    +0.005 A 
ATOM      6  C10 UNL     1       0.057   1.895   0.676  0.00  0.00    +0.004 A 
ENDROOT
BRANCH   4   7
ATOM      7  C11 UNL     1       0.335   5.696   0.389  0.00  0.00    +0.124 C 
ATOM      8  C12 UNL     1      -1.009   5.924   1.082  0.00  0.00    +0.024 C 
BRANCH   7   9
ATOM      9  C13 UNL     1       1.411   6.495   1.106  0.00  0.00    +0.312 C 
ATOM     10  O1  UNL     1       2.156   7.343   0.645  0.00  0.00    -0.250 OA
BRANCH   9  11
ATOM     11  O2  UNL     1       1.533   6.136   2.404  0.00  0.00    -0.480 OA
ATOM     12  H18 UNL     1       0.714   5.627   2.579  0.00  0.00    +0.295 HD
ENDBRANCH   9  11
ENDBRANCH   7   9
ENDBRANCH   4   7
BRANCH   1  13
ATOM     13  C4  UNL     1       1.550  -0.020  -0.023  0.00  0.00    +0.038 C 
BRANCH  13  15
ATOM     14  C1  UNL     1       2.796  -0.278   2.144  0.00  0.00    +0.007 C 
ATOM     15  C2  UNL     1       2.891  -0.420   0.623  0.00  0.00    -0.013 C 
ATOM     16  C3  UNL     1       3.296  -1.851   0.263  0.00  0.00    +0.007 C 
ENDBRANCH  13  15
ENDBRANCH   1  13
TORSDOF 5
ENDMDL
