MODEL 3
REMARK VINA RESULT:     0.000      7.606      9.283
REMARK INTER + INTRA:          -0.730
REMARK INTER:                   0.000
REMARK INTRA:                  -0.730
REMARK UNBOUND:                -0.730
REMARK  Name = /tmp/bindforge_docking_624297ad-3f37-4fec-b288-97d5b5a1d698/ligand_3444761d.pdb
REMARK  5 active torsions:
REMARK  status: ('A' for Active; 'I' for Inactive)
REMARK    1  A    between atoms: C1_1  and  C2_2
REMARK    2  A    between atoms: C2_2  and  O2_4
REMARK    3  A    between atoms: O2_4  and  C3_5
REMARK    4  A    between atoms: C8_10  and  C9_11
REMARK    5  A    between atoms: C9_11  and  O4_13
REMARK                            x       y       z     vdW  Elec       q    Type
REMARK                         _______ _______ _______ _____ _____    ______ ____
ROOT
ATOM      1  C3  UNL     1       2.963  -2.681  -2.571  0.00  0.00    +0.146 A 
ATOM      2  C4  UNL     1       1.622  -2.283  -2.599  0.00  0.00    +0.047 A 
ATOM      3  C5  UNL     1       0.785  -2.750  -3.611  0.00  0.00    +0.004 A 
ATOM      4  C6  UNL     1       1.290  -3.598  -4.596  0.00  0.00    +0.001 A 
ATOM      5  C7  UNL     1       2.636  -3.979  -4.576  0.00  0.00    +0.018 A 
ATOM      6  C8  UNL     1       3.493  -3.519  -3.564  0.00  0.00    +0.101 A 
ENDROOT
BRANCH   6   7
ATOM      7  C9  UNL     1       4.931  -3.896  -3.553  0.00  0.00    +0.340 C 
ATOM      8  O3  UNL     1       5.778  -3.584  -4.368  0.00  0.00    -0.245 OA
BRANCH   7   9
ATOM      9  O4  UNL     1       5.253  -4.669  -2.497  0.00  0.00    -0.477 OA
ATOM     10  H8  UNL     1       5.773  -5.399  -2.893  0.00  0.00    +0.295 HD
ENDBRANCH   7   9
ENDBRANCH   6   7
BRANCH   1  11
ATOM     11  O2  UNL     1       3.755  -2.155  -1.547  0.00  0.00    -0.425 OA
BRANCH  11  13
ATOM     12  C1  UNL     1       3.178  -1.674   0.682  0.00  0.00    +0.136 C 
ATOM     13  C2  UNL     1       3.498  -2.747  -0.315  0.00  0.00    +0.309 C 
ATOM     14  O1  UNL     1       3.504  -3.945  -0.065  0.00  0.00    -0.251 OA
ENDBRANCH  11  13
ENDBRANCH   1  11
TORSDOF 4
ENDMDL
