MODEL 6
REMARK VINA RESULT:     0.000      6.179      7.464
REMARK INTER + INTRA:          -0.598
REMARK INTER:                   0.000
REMARK INTRA:                  -0.598
REMARK UNBOUND:                -0.598
REMARK  Name = /tmp/bindforge_docking_85f42c74-3822-4c73-aa73-7f7500b3e001/ligand_1e342629.pdb
REMARK  8 active torsions:
REMARK  status: ('A' for Active; 'I' for Inactive)
REMARK    1  A    between atoms: C1_1  and  C2_2
REMARK    2  A    between atoms: C2_2  and  C3_3
REMARK    3  A    between atoms: C2_2  and  C4_4
REMARK    4  A    between atoms: C4_4  and  C5_5
REMARK    5  A    between atoms: C8_8  and  C11_11
REMARK    6  A    between atoms: C11_11  and  C12_12
REMARK    7  A    between atoms: C11_11  and  C13_13
REMARK    8  A    between atoms: C13_13  and  O2_15
REMARK                            x       y       z     vdW  Elec       q    Type
REMARK                         _______ _______ _______ _____ _____    ______ ____
ROOT
ATOM      1  C5  UNL     1       3.753   2.954  -3.882  0.00  0.00    -0.047 A 
ATOM      2  C6  UNL     1       4.985   3.514  -4.234  0.00  0.00    +0.004 A 
ATOM      3  C7  UNL     1       6.062   2.697  -4.588  0.00  0.00    +0.005 A 
ATOM      4  C8  UNL     1       5.933   1.301  -4.598  0.00  0.00    -0.034 A 
ATOM      5  C9  UNL     1       4.696   0.744  -4.242  0.00  0.00    +0.005 A 
ATOM      6  C10 UNL     1       3.618   1.561  -3.889  0.00  0.00    +0.004 A 
ENDROOT
BRANCH   4   7
ATOM      7  C11 UNL     1       7.086   0.391  -4.991  0.00  0.00    +0.124 C 
ATOM      8  C12 UNL     1       6.695  -1.085  -4.922  0.00  0.00    +0.024 C 
BRANCH   7   9
ATOM      9  C13 UNL     1       7.654   0.695  -6.368  0.00  0.00    +0.312 C 
ATOM     10  O1  UNL     1       8.748   1.154  -6.650  0.00  0.00    -0.250 OA
BRANCH   9  11
ATOM     11  O2  UNL     1       6.763   0.443  -7.354  0.00  0.00    -0.480 OA
ATOM     12  H18 UNL     1       6.831  -0.526  -7.482  0.00  0.00    +0.295 HD
ENDBRANCH   9  11
ENDBRANCH   7   9
ENDBRANCH   4   7
BRANCH   1  13
ATOM     13  C4  UNL     1       2.587   3.835  -3.504  0.00  0.00    +0.038 C 
BRANCH  13  15
ATOM     14  C1  UNL     1       1.602   4.147  -5.794  0.00  0.00    +0.007 C 
ATOM     15  C2  UNL     1       2.206   4.865  -4.586  0.00  0.00    -0.013 C 
ATOM     16  C3  UNL     1       1.220   5.910  -4.060  0.00  0.00    +0.007 C 
ENDBRANCH  13  15
ENDBRANCH   1  13
TORSDOF 5
ENDMDL
