MODEL 4
REMARK VINA RESULT:    -0.000      3.414      4.709
REMARK INTER + INTRA:          -0.730
REMARK INTER:                   0.000
REMARK INTRA:                  -0.730
REMARK UNBOUND:                -0.730
REMARK  Name = /tmp/bindforge_docking_68596179-1fb9-47ff-b18e-febccc65ad33/ligand_d1b4f9d2.pdb
REMARK  5 active torsions:
REMARK  status: ('A' for Active; 'I' for Inactive)
REMARK    1  A    between atoms: C1_1  and  C2_2
REMARK    2  A    between atoms: C2_2  and  O2_4
REMARK    3  A    between atoms: O2_4  and  C3_5
REMARK    4  A    between atoms: C8_10  and  C9_11
REMARK    5  A    between atoms: C9_11  and  O4_13
REMARK                            x       y       z     vdW  Elec       q    Type
REMARK                         _______ _______ _______ _____ _____    ______ ____
ROOT
ATOM      1  C3  UNL     1       0.402  -0.199  -0.619  0.00  0.00    +0.146 A 
ATOM      2  C4  UNL     1      -0.787   0.531  -0.512  0.00  0.00    +0.047 A 
ATOM      3  C5  UNL     1      -0.844   1.635   0.337  0.00  0.00    +0.004 A 
ATOM      4  C6  UNL     1       0.277   1.998   1.083  0.00  0.00    +0.001 A 
ATOM      5  C7  UNL     1       1.458   1.255   0.987  0.00  0.00    +0.018 A 
ATOM      6  C8  UNL     1       1.533   0.140   0.138  0.00  0.00    +0.101 A 
ENDROOT
BRANCH   6   7
ATOM      7  C9  UNL     1       2.775  -0.672   0.054  0.00  0.00    +0.340 C 
ATOM      8  O3  UNL     1       3.271  -1.350   0.934  0.00  0.00    -0.245 OA
BRANCH   7   9
ATOM      9  O4  UNL     1       3.360  -0.596  -1.158  0.00  0.00    -0.477 OA
ATOM     10  H8  UNL     1       4.312  -0.728  -0.966  0.00  0.00    +0.295 HD
ENDBRANCH   7   9
ENDBRANCH   6   7
BRANCH   1  11
ATOM     11  O2  UNL     1       0.383  -1.312  -1.465  0.00  0.00    -0.425 OA
BRANCH  11  13
ATOM     12  C1  UNL     1      -0.743  -1.609  -3.508  0.00  0.00    +0.136 C 
ATOM     13  C2  UNL     1       0.415  -0.961  -2.810  0.00  0.00    +0.309 C 
ATOM     14  O1  UNL     1       1.230  -0.228  -3.355  0.00  0.00    -0.251 OA
ENDBRANCH  11  13
ENDBRANCH   1  11
TORSDOF 4
ENDMDL
