MODEL 6
REMARK VINA RESULT:     0.000     11.608     11.816
REMARK INTER + INTRA:           0.000
REMARK INTER:                   0.000
REMARK INTRA:                   0.000
REMARK UNBOUND:                 0.000
REMARK  Name = /tmp/bindforge_docking_57f742c7-e041-4c39-9436-d7978010b3bc/ligand_1b8510f5.pdb
REMARK  3 active torsions:
REMARK  status: ('A' for Active; 'I' for Inactive)
REMARK    1  A    between atoms: C1_1  and  C2_2
REMARK    2  A    between atoms: C1_1  and  N1_5
REMARK    3  A    between atoms: C2_2  and  O2_4
REMARK                            x       y       z     vdW  Elec       q    Type
REMARK                         _______ _______ _______ _____ _____    ______ ____
ROOT
ATOM      1  C1  UNL     1      -6.268   7.092  -3.020  0.00  0.00    +0.199 C 
ENDROOT
BRANCH   1   2
ATOM      2  N1  UNL     1      -5.809   7.175  -4.419  0.00  0.00    -0.321 NA
ATOM      3  H4  UNL     1      -5.853   6.236  -4.823  0.00  0.00    +0.119 HD
ATOM      4  H5  UNL     1      -4.810   7.393  -4.413  0.00  0.00    +0.119 HD
ENDBRANCH   1   2
BRANCH   1   5
ATOM      5  C2  UNL     1      -5.092   7.124  -2.055  0.00  0.00    +0.319 C 
ATOM      6  O1  UNL     1      -4.342   8.067  -1.848  0.00  0.00    -0.250 OA
BRANCH   5   7
ATOM      7  O2  UNL     1      -4.927   5.959  -1.400  0.00  0.00    -0.480 OA
ATOM      8  H3  UNL     1      -4.998   5.278  -2.101  0.00  0.00    +0.295 HD
ENDBRANCH   5   7
ENDBRANCH   1   5
TORSDOF 3
ENDMDL
