MODEL 8
REMARK VINA RESULT:     0.000      6.175      7.183
REMARK INTER + INTRA:          -0.377
REMARK INTER:                   0.000
REMARK INTRA:                  -0.377
REMARK UNBOUND:                -0.377
REMARK  Name = /tmp/bindforge_docking_d24c35cd-675b-417e-ae98-49aeefbd191c/ligand_4c2785dc.pdb
REMARK  4 active torsions:
REMARK  status: ('A' for Active; 'I' for Inactive)
REMARK    1  A    between atoms: C1_1  and  C2_2
REMARK    2  A    between atoms: C5_5  and  S1_8
REMARK    3  A    between atoms: S1_8  and  N1_11
REMARK    4  A    between atoms: N2_14  and  N3_15
REMARK                            x       y       z     vdW  Elec       q    Type
REMARK                         _______ _______ _______ _____ _____    ______ ____
ROOT
ATOM      1  N1  UNL     1       3.460   0.471   0.627  0.00  0.00    -0.168 N 
ATOM      2  C8  UNL     1       2.781  -0.745   0.605  0.00  0.00    +0.333 C 
ATOM      3  O3  UNL     1       1.583  -0.839   0.813  0.00  0.00    -0.250 OA
ATOM      4  N2  UNL     1       3.626  -1.805   0.332  0.00  0.00    -0.231 N 
ATOM      5  H8  UNL     1       4.450   0.522   0.443  0.00  0.00    +0.178 HD
ATOM      6  H9  UNL     1       4.614  -1.643   0.190  0.00  0.00    +0.171 HD
ENDROOT
BRANCH   4   7
ATOM      7  N3  UNL     1       3.127  -3.119   0.258  0.00  0.00    -0.226 NA
ATOM      8  C9  UNL     1       3.985  -4.058   0.992  0.00  0.00    +0.105 C 
ATOM      9  C10 UNL     1       3.395  -5.468   0.984  0.00  0.00    +0.017 C 
ATOM     10  C11 UNL     1       3.130  -5.951  -0.438  0.00  0.00    +0.003 C 
ATOM     11  C12 UNL     1       2.291  -4.931  -1.200  0.00  0.00    +0.017 C 
ATOM     12  C13 UNL     1       2.912  -3.536  -1.133  0.00  0.00    +0.105 C 
ENDBRANCH   4   7
BRANCH   1  13
ATOM     13  S1  UNL     1       2.690   1.915   0.939  0.00  0.00    +0.076 S 
ATOM     14  O1  UNL     1       2.262   1.939   2.320  0.00  0.00    -0.150 OA
ATOM     15  O2  UNL     1       1.810   2.237  -0.162  0.00  0.00    -0.150 OA
BRANCH  13  20
ATOM     16  C1  UNL     1       7.427   5.699   0.505  0.00  0.00    +0.044 C 
ATOM     17  C2  UNL     1       6.263   4.761   0.643  0.00  0.00    -0.050 A 
ATOM     18  C3  UNL     1       6.436   3.385   0.435  0.00  0.00    +0.005 A 
ATOM     19  C4  UNL     1       5.349   2.515   0.523  0.00  0.00    +0.029 A 
ATOM     20  C5  UNL     1       4.083   3.026   0.817  0.00  0.00    +0.109 A 
ATOM     21  C6  UNL     1       3.889   4.398   1.000  0.00  0.00    +0.029 A 
ATOM     22  C7  UNL     1       4.982   5.262   0.911  0.00  0.00    +0.005 A 
ENDBRANCH  13  20
ENDBRANCH   1  13
TORSDOF 3
ENDMDL
