MODEL 1
REMARK VINA RESULT:     0.000      0.000      0.000
REMARK INTER + INTRA:           0.000
REMARK INTER:                   0.000
REMARK INTRA:                   0.000
REMARK UNBOUND:                 0.000
REMARK  Name = /tmp/bindforge_docking_e7faa7d1-a6b1-4d85-9ed3-23c9d9d6b59f/ligand_380a1b5a.pdb
REMARK  3 active torsions:
REMARK  status: ('A' for Active; 'I' for Inactive)
REMARK    1  A    between atoms: C1_1  and  C2_2
REMARK    2  A    between atoms: C1_1  and  N1_5
REMARK    3  A    between atoms: C2_2  and  O2_4
REMARK                            x       y       z     vdW  Elec       q    Type
REMARK                         _______ _______ _______ _____ _____    ______ ____
ROOT
ATOM      1  C1  UNL     1      -1.929  -0.239   7.893  0.00  0.00    +0.199 C 
ENDROOT
BRANCH   1   2
ATOM      2  N1  UNL     1      -2.632  -1.371   8.527  0.00  0.00    -0.321 NA
ATOM      3  H4  UNL     1      -3.204  -1.828   7.812  0.00  0.00    +0.119 HD
ATOM      4  H5  UNL     1      -3.319  -0.990   9.183  0.00  0.00    +0.119 HD
ENDBRANCH   1   2
BRANCH   1   5
ATOM      5  C2  UNL     1      -1.832  -0.428   6.386  0.00  0.00    +0.319 C 
ATOM      6  O1  UNL     1      -1.205  -1.297   5.799  0.00  0.00    -0.250 OA
BRANCH   5   7
ATOM      7  O2  UNL     1      -2.536   0.494   5.702  0.00  0.00    -0.480 OA
ATOM      8  H3  UNL     1      -1.851   1.074   5.308  0.00  0.00    +0.295 HD
ENDBRANCH   5   7
ENDBRANCH   1   5
TORSDOF 3
ENDMDL
