MODEL 6
REMARK VINA RESULT:     0.000      6.557      7.621
REMARK INTER + INTRA:          -0.729
REMARK INTER:                   0.000
REMARK INTRA:                  -0.729
REMARK UNBOUND:                -0.729
REMARK  Name = /tmp/bindforge_docking_4a3d891c-9d04-4ccd-9b83-baedc18b2c32/ligand_5ecf586d.pdb
REMARK  5 active torsions:
REMARK  status: ('A' for Active; 'I' for Inactive)
REMARK    1  A    between atoms: C1_1  and  C2_2
REMARK    2  A    between atoms: C2_2  and  O2_4
REMARK    3  A    between atoms: O2_4  and  C3_5
REMARK    4  A    between atoms: C8_10  and  C9_11
REMARK    5  A    between atoms: C9_11  and  O4_13
REMARK                            x       y       z     vdW  Elec       q    Type
REMARK                         _______ _______ _______ _____ _____    ______ ____
ROOT
ATOM      1  C3  UNL     1       1.216  -5.833  -5.322  0.00  0.00    +0.146 A 
ATOM      2  C4  UNL     1      -0.047  -5.445  -5.781  0.00  0.00    +0.047 A 
ATOM      3  C5  UNL     1      -1.066  -6.390  -5.882  0.00  0.00    +0.004 A 
ATOM      4  C6  UNL     1      -0.819  -7.719  -5.536  0.00  0.00    +0.001 A 
ATOM      5  C7  UNL     1       0.450  -8.108  -5.095  0.00  0.00    +0.018 A 
ATOM      6  C8  UNL     1       1.487  -7.168  -4.988  0.00  0.00    +0.101 A 
ENDROOT
BRANCH   6   7
ATOM      7  C9  UNL     1       2.847  -7.579  -4.548  0.00  0.00    +0.340 C 
ATOM      8  O3  UNL     1       3.617  -8.316  -5.134  0.00  0.00    -0.245 OA
BRANCH   7   9
ATOM      9  O4  UNL     1       3.189  -7.041  -3.361  0.00  0.00    -0.477 OA
ATOM     10  H8  UNL     1       2.639  -7.531  -2.715  0.00  0.00    +0.295 HD
ENDBRANCH   7   9
ENDBRANCH   6   7
BRANCH   1  11
ATOM     11  O2  UNL     1       2.200  -4.842  -5.272  0.00  0.00    -0.425 OA
BRANCH  11  13
ATOM     12  C1  UNL     1       1.991  -2.562  -4.734  0.00  0.00    +0.136 C 
ATOM     13  C2  UNL     1       2.023  -3.965  -4.207  0.00  0.00    +0.309 C 
ATOM     14  O1  UNL     1       1.891  -4.265  -3.028  0.00  0.00    -0.251 OA
ENDBRANCH  11  13
ENDBRANCH   1  11
TORSDOF 4
ENDMDL
