MODEL 2
REMARK VINA RESULT:    -0.000      5.883      7.998
REMARK INTER + INTRA:          -0.598
REMARK INTER:                   0.000
REMARK INTRA:                  -0.598
REMARK UNBOUND:                -0.598
REMARK  Name = /tmp/bindforge_docking_85f42c74-3822-4c73-aa73-7f7500b3e001/ligand_1e342629.pdb
REMARK  8 active torsions:
REMARK  status: ('A' for Active; 'I' for Inactive)
REMARK    1  A    between atoms: C1_1  and  C2_2
REMARK    2  A    between atoms: C2_2  and  C3_3
REMARK    3  A    between atoms: C2_2  and  C4_4
REMARK    4  A    between atoms: C4_4  and  C5_5
REMARK    5  A    between atoms: C8_8  and  C11_11
REMARK    6  A    between atoms: C11_11  and  C12_12
REMARK    7  A    between atoms: C11_11  and  C13_13
REMARK    8  A    between atoms: C13_13  and  O2_15
REMARK                            x       y       z     vdW  Elec       q    Type
REMARK                         _______ _______ _______ _____ _____    ______ ____
ROOT
ATOM      1  C5  UNL     1      -0.298   2.402   3.168  0.00  0.00    -0.047 A 
ATOM      2  C6  UNL     1       0.440   3.511   3.593  0.00  0.00    +0.004 A 
ATOM      3  C7  UNL     1       1.301   4.171   2.711  0.00  0.00    +0.005 A 
ATOM      4  C8  UNL     1       1.445   3.738   1.386  0.00  0.00    -0.034 A 
ATOM      5  C9  UNL     1       0.705   2.623   0.966  0.00  0.00    +0.005 A 
ATOM      6  C10 UNL     1      -0.158   1.963   1.846  0.00  0.00    +0.004 A 
ENDROOT
BRANCH   4   7
ATOM      7  C11 UNL     1       2.366   4.446   0.405  0.00  0.00    +0.124 C 
ATOM      8  C12 UNL     1       2.348   3.783  -0.972  0.00  0.00    +0.024 C 
BRANCH   7   9
ATOM      9  C13 UNL     1       2.062   5.927   0.253  0.00  0.00    +0.312 C 
ATOM     10  O1  UNL     1       2.741   6.878   0.604  0.00  0.00    -0.250 OA
BRANCH   9  11
ATOM     11  O2  UNL     1       0.852   6.144  -0.309  0.00  0.00    -0.480 OA
ATOM     12  H18 UNL     1       1.019   6.876  -0.939  0.00  0.00    +0.295 HD
ENDBRANCH   9  11
ENDBRANCH   7   9
ENDBRANCH   4   7
BRANCH   1  13
ATOM     13  C4  UNL     1      -1.233   1.690   4.117  0.00  0.00    +0.038 C 
BRANCH  13  15
ATOM     14  C1  UNL     1      -3.308   3.033   3.666  0.00  0.00    +0.007 C 
ATOM     15  C2  UNL     1      -2.305   2.605   4.740  0.00  0.00    -0.013 C 
ATOM     16  C3  UNL     1      -3.043   1.920   5.892  0.00  0.00    +0.007 C 
ENDBRANCH  13  15
ENDBRANCH   1  13
TORSDOF 5
ENDMDL
