MODEL 3
REMARK VINA RESULT:    -0.000      5.695      7.160
REMARK INTER + INTRA:          -0.642
REMARK INTER:                   0.000
REMARK INTRA:                  -0.642
REMARK UNBOUND:                -0.641
REMARK  Name = /tmp/bindforge_docking_961ec898-9754-41d2-9bfb-eaa9ec109518/ligand_3888f3a0.pdb
REMARK  9 active torsions:
REMARK  status: ('A' for Active; 'I' for Inactive)
REMARK    1  A    between atoms: C1_1  and  C2_2
REMARK    2  A    between atoms: C3_3  and  O1_12
REMARK    3  A    between atoms: C6_6  and  C8_8
REMARK    4  A    between atoms: C8_8  and  C9_9
REMARK    5  A    between atoms: C8_8  and  C10_10
REMARK    6  A    between atoms: C8_8  and  C11_11
REMARK    7  A    between atoms: O1_12  and  C12_13
REMARK    8  A    between atoms: C12_13  and  C13_14
REMARK    9  A    between atoms: C13_14  and  O3_16
REMARK                            x       y       z     vdW  Elec       q    Type
REMARK                         _______ _______ _______ _____ _____    ______ ____
ROOT
ATOM      1  C1  UNL     1       3.275   2.772   3.007  0.00  0.00    +0.047 C 
ATOM      2  C2  UNL     1       4.088   1.579   2.584  0.00  0.00    -0.008 A 
ATOM      3  C3  UNL     1       4.512   0.630   3.526  0.00  0.00    +0.124 A 
ATOM      4  C4  UNL     1       5.264  -0.461   3.095  0.00  0.00    +0.046 A 
ATOM      5  C5  UNL     1       5.601  -0.610   1.741  0.00  0.00    +0.008 A 
ATOM      6  C6  UNL     1       5.196   0.323   0.778  0.00  0.00    -0.042 A 
ATOM      7  C7  UNL     1       4.434   1.417   1.230  0.00  0.00    +0.011 A 
ENDROOT
BRANCH   6   8
ATOM      8  C8  UNL     1       5.550   0.189  -0.713  0.00  0.00    -0.013 C 
ATOM      9  C9  UNL     1       4.788  -0.944  -1.436  0.00  0.00    +0.015 C 
ATOM     10  C10 UNL     1       7.058  -0.106  -0.865  0.00  0.00    +0.015 C 
ATOM     11  C11 UNL     1       5.214   1.506  -1.447  0.00  0.00    +0.015 C 
ENDBRANCH   6   8
BRANCH   3  12
ATOM     12  O1  UNL     1       4.129   0.870   4.819  0.00  0.00    -0.481 OA
BRANCH  12  13
ATOM     13  C12 UNL     1       5.134   0.981   5.813  0.00  0.00    +0.349 C 
BRANCH  13  14
ATOM     14  C13 UNL     1       6.076   2.163   5.659  0.00  0.00    +0.343 C 
ATOM     15  O2  UNL     1       5.749   3.340   5.655  0.00  0.00    -0.247 OA
BRANCH  14  16
ATOM     16  O3  UNL     1       7.364   1.810   5.481  0.00  0.00    -0.478 OA
ATOM     17  H18 UNL     1       7.834   2.657   5.336  0.00  0.00    +0.295 HD
ENDBRANCH  14  16
ENDBRANCH  13  14
ENDBRANCH  12  13
ENDBRANCH   3  12
TORSDOF 5
ENDMDL
