MODEL 1
REMARK VINA RESULT:    -0.001      0.000      0.000
REMARK INTER + INTRA:          -0.379
REMARK INTER:                   0.000
REMARK INTRA:                  -0.379
REMARK UNBOUND:                -0.377
REMARK  Name = /tmp/bindforge_docking_3310986b-c235-4533-8ff8-d231779e240c/ligand_7f873e9b.pdb
REMARK  4 active torsions:
REMARK  status: ('A' for Active; 'I' for Inactive)
REMARK    1  A    between atoms: C1_1  and  C2_2
REMARK    2  A    between atoms: C5_5  and  S1_8
REMARK    3  A    between atoms: S1_8  and  N1_11
REMARK    4  A    between atoms: N2_14  and  N3_15
REMARK                            x       y       z     vdW  Elec       q    Type
REMARK                         _______ _______ _______ _____ _____    ______ ____
ROOT
ATOM      1  N1  UNL     1      -1.349   2.484  -2.272  0.00  0.00    -0.168 N 
ATOM      2  C8  UNL     1      -2.569   2.589  -1.608  0.00  0.00    +0.333 C 
ATOM      3  O3  UNL     1      -3.634   2.297  -2.126  0.00  0.00    -0.250 OA
ATOM      4  N2  UNL     1      -2.417   3.065  -0.319  0.00  0.00    -0.231 N 
ATOM      5  H8  UNL     1      -0.482   2.724  -1.816  0.00  0.00    +0.178 HD
ATOM      6  H9  UNL     1      -1.498   3.302   0.030  0.00  0.00    +0.171 HD
ENDROOT
BRANCH   4   7
ATOM      7  N3  UNL     1      -3.535   3.234   0.520  0.00  0.00    -0.226 NA
ATOM      8  C9  UNL     1      -3.490   4.526   1.216  0.00  0.00    +0.105 C 
ATOM      9  C10 UNL     1      -4.747   4.744   2.058  0.00  0.00    +0.017 C 
ATOM     10  C11 UNL     1      -4.970   3.593   3.033  0.00  0.00    +0.003 C 
ATOM     11  C12 UNL     1      -4.950   2.259   2.296  0.00  0.00    +0.017 C 
ATOM     12  C13 UNL     1      -3.687   2.108   1.449  0.00  0.00    +0.105 C 
ENDBRANCH   4   7
BRANCH   1  13
ATOM     13  S1  UNL     1      -1.234   1.944  -3.844  0.00  0.00    +0.076 S 
ATOM     14  O1  UNL     1      -1.817   2.927  -4.729  0.00  0.00    -0.150 OA
ATOM     15  O2  UNL     1      -1.576   0.541  -3.895  0.00  0.00    -0.150 OA
BRANCH  13  20
ATOM     16  C1  UNL     1       4.790   2.267  -4.586  0.00  0.00    +0.044 C 
ATOM     17  C2  UNL     1       3.300   2.217  -4.413  0.00  0.00    -0.050 A 
ATOM     18  C3  UNL     1       2.718   2.569  -3.187  0.00  0.00    +0.005 A 
ATOM     19  C4  UNL     1       1.337   2.486  -3.009  0.00  0.00    +0.029 A 
ATOM     20  C5  UNL     1       0.535   2.045  -4.063  0.00  0.00    +0.109 A 
ATOM     21  C6  UNL     1       1.101   1.663  -5.283  0.00  0.00    +0.029 A 
ATOM     22  C7  UNL     1       2.484   1.749  -5.453  0.00  0.00    +0.005 A 
ENDBRANCH  13  20
ENDBRANCH   1  13
TORSDOF 3
ENDMDL
