MODEL 3
REMARK VINA RESULT:     0.000      8.512     10.335
REMARK INTER + INTRA:          -0.377
REMARK INTER:                   0.000
REMARK INTRA:                  -0.377
REMARK UNBOUND:                -0.377
REMARK  Name = /tmp/bindforge_docking_d24c35cd-675b-417e-ae98-49aeefbd191c/ligand_4c2785dc.pdb
REMARK  4 active torsions:
REMARK  status: ('A' for Active; 'I' for Inactive)
REMARK    1  A    between atoms: C1_1  and  C2_2
REMARK    2  A    between atoms: C5_5  and  S1_8
REMARK    3  A    between atoms: S1_8  and  N1_11
REMARK    4  A    between atoms: N2_14  and  N3_15
REMARK                            x       y       z     vdW  Elec       q    Type
REMARK                         _______ _______ _______ _____ _____    ______ ____
ROOT
ATOM      1  N1  UNL     1       4.352  -2.177   3.825  0.00  0.00    -0.168 N 
ATOM      2  C8  UNL     1       3.751  -3.433   3.824  0.00  0.00    +0.333 C 
ATOM      3  O3  UNL     1       4.372  -4.466   4.019  0.00  0.00    -0.250 OA
ATOM      4  N2  UNL     1       2.394  -3.358   3.569  0.00  0.00    -0.231 N 
ATOM      5  H8  UNL     1       3.814  -1.339   3.669  0.00  0.00    +0.178 HD
ATOM      6  H9  UNL     1       1.959  -2.462   3.399  0.00  0.00    +0.171 HD
ENDROOT
BRANCH   4   7
ATOM      7  N3  UNL     1       1.605  -4.524   3.535  0.00  0.00    -0.226 NA
ATOM      8  C9  UNL     1       0.702  -4.523   2.377  0.00  0.00    +0.105 C 
ATOM      9  C10 UNL     1      -0.090  -5.827   2.294  0.00  0.00    +0.017 C 
ATOM     10  C11 UNL     1      -0.846  -6.102   3.589  0.00  0.00    +0.003 C 
ATOM     11  C12 UNL     1       0.100  -6.036   4.783  0.00  0.00    +0.017 C 
ATOM     12  C13 UNL     1       0.886  -4.725   4.799  0.00  0.00    +0.105 C 
ENDBRANCH   4   7
BRANCH   1  13
ATOM     13  S1  UNL     1       5.983  -1.970   4.097  0.00  0.00    +0.076 S 
ATOM     14  O1  UNL     1       6.725  -2.507   2.978  0.00  0.00    -0.150 OA
ATOM     15  O2  UNL     1       6.285  -2.301   5.471  0.00  0.00    -0.150 OA
BRANCH  13  20
ATOM     16  C1  UNL     1       6.315   4.085   3.679  0.00  0.00    +0.044 C 
ATOM     17  C2  UNL     1       6.239   2.588   3.751  0.00  0.00    -0.050 A 
ATOM     18  C3  UNL     1       5.007   1.935   3.600  0.00  0.00    +0.005 A 
ATOM     19  C4  UNL     1       4.925   0.546   3.706  0.00  0.00    +0.029 A 
ATOM     20  C5  UNL     1       6.081  -0.191   3.968  0.00  0.00    +0.109 A 
ATOM     21  C6  UNL     1       7.312   0.446   4.150  0.00  0.00    +0.029 A 
ATOM     22  C7  UNL     1       7.386   1.836   4.042  0.00  0.00    +0.005 A 
ENDBRANCH  13  20
ENDBRANCH   1  13
TORSDOF 3
ENDMDL
