MODEL 5
REMARK VINA RESULT:     0.000      8.898     10.271
REMARK INTER + INTRA:          -0.730
REMARK INTER:                   0.000
REMARK INTRA:                  -0.730
REMARK UNBOUND:                -0.730
REMARK  Name = /tmp/bindforge_docking_366e04ba-33d9-4203-9467-c92c71645035/ligand_eee2629b.pdb
REMARK  5 active torsions:
REMARK  status: ('A' for Active; 'I' for Inactive)
REMARK    1  A    between atoms: C1_1  and  C2_2
REMARK    2  A    between atoms: C2_2  and  O2_4
REMARK    3  A    between atoms: O2_4  and  C3_5
REMARK    4  A    between atoms: C8_10  and  C9_11
REMARK    5  A    between atoms: C9_11  and  O4_13
REMARK                            x       y       z     vdW  Elec       q    Type
REMARK                         _______ _______ _______ _____ _____    ______ ____
ROOT
ATOM      1  C3  UNL     1       6.047  -0.427   0.791  0.00  0.00    +0.146 A 
ATOM      2  C4  UNL     1       7.069  -1.206   0.238  0.00  0.00    +0.047 A 
ATOM      3  C5  UNL     1       8.398  -0.925   0.551  0.00  0.00    +0.004 A 
ATOM      4  C6  UNL     1       8.702   0.136   1.403  0.00  0.00    +0.001 A 
ATOM      5  C7  UNL     1       7.679   0.925   1.940  0.00  0.00    +0.018 A 
ATOM      6  C8  UNL     1       6.336   0.656   1.635  0.00  0.00    +0.101 A 
ENDROOT
BRANCH   6   7
ATOM      7  C9  UNL     1       5.245   1.507   2.178  0.00  0.00    +0.340 C 
ATOM      8  O3  UNL     1       5.034   2.679   1.929  0.00  0.00    -0.245 OA
BRANCH   7   9
ATOM      9  O4  UNL     1       4.448   0.840   3.036  0.00  0.00    -0.477 OA
ATOM     10  H8  UNL     1       5.015   0.109   3.360  0.00  0.00    +0.295 HD
ENDBRANCH   7   9
ENDBRANCH   6   7
BRANCH   1  11
ATOM     11  O2  UNL     1       4.740  -0.744   0.413  0.00  0.00    -0.425 OA
BRANCH  11  13
ATOM     12  C1  UNL     1       3.783  -2.849  -0.021  0.00  0.00    +0.136 C 
ATOM     13  C2  UNL     1       4.269  -1.897   1.032  0.00  0.00    +0.309 C 
ATOM     14  O1  UNL     1       4.260  -2.130   2.233  0.00  0.00    -0.251 OA
ENDBRANCH  11  13
ENDBRANCH   1  11
TORSDOF 4
ENDMDL
