MODEL 2
REMARK VINA RESULT:    -0.001     13.920     14.969
REMARK INTER + INTRA:          -0.731
REMARK INTER:                   0.000
REMARK INTRA:                  -0.731
REMARK UNBOUND:                -0.730
REMARK  Name = /tmp/bindforge_docking_b543ad0f-f013-4b3e-914b-f82674ab16e7/ligand_3b604c32.pdb
REMARK  5 active torsions:
REMARK  status: ('A' for Active; 'I' for Inactive)
REMARK    1  A    between atoms: C1_1  and  C2_2
REMARK    2  A    between atoms: C2_2  and  O2_4
REMARK    3  A    between atoms: O2_4  and  C3_5
REMARK    4  A    between atoms: C8_10  and  C9_11
REMARK    5  A    between atoms: C9_11  and  O4_13
REMARK                            x       y       z     vdW  Elec       q    Type
REMARK                         _______ _______ _______ _____ _____    ______ ____
ROOT
ATOM      1  C3  UNL     1      -4.335   6.635  -1.677  0.00  0.00    +0.146 A 
ATOM      2  C4  UNL     1      -3.760   5.551  -2.349  0.00  0.00    +0.047 A 
ATOM      3  C5  UNL     1      -3.587   4.339  -1.684  0.00  0.00    +0.004 A 
ATOM      4  C6  UNL     1      -3.975   4.216  -0.350  0.00  0.00    +0.001 A 
ATOM      5  C7  UNL     1      -4.533   5.306   0.325  0.00  0.00    +0.018 A 
ATOM      6  C8  UNL     1      -4.714   6.534  -0.330  0.00  0.00    +0.101 A 
ENDROOT
BRANCH   6   7
ATOM      7  C9  UNL     1      -5.279   7.706   0.390  0.00  0.00    +0.340 C 
ATOM      8  O3  UNL     1      -4.775   8.312   1.317  0.00  0.00    -0.245 OA
BRANCH   7   9
ATOM      9  O4  UNL     1      -6.481   8.077  -0.092  0.00  0.00    -0.477 OA
ATOM     10  H8  UNL     1      -6.704   8.877   0.428  0.00  0.00    +0.295 HD
ENDBRANCH   7   9
ENDBRANCH   6   7
BRANCH   1  11
ATOM     11  O2  UNL     1      -4.453   7.829  -2.392  0.00  0.00    -0.425 OA
BRANCH  11  13
ATOM     12  C1  UNL     1      -4.932   8.158  -4.672  0.00  0.00    +0.136 C 
ATOM     13  C2  UNL     1      -5.483   7.793  -3.326  0.00  0.00    +0.309 C 
ATOM     14  O1  UNL     1      -6.652   7.496  -3.114  0.00  0.00    -0.251 OA
ENDBRANCH  11  13
ENDBRANCH   1  11
TORSDOF 4
ENDMDL
