MODEL 8
REMARK VINA RESULT:     0.001     10.895     11.806
REMARK INTER + INTRA:          -0.729
REMARK INTER:                   0.000
REMARK INTRA:                  -0.729
REMARK UNBOUND:                -0.730
REMARK  Name = /tmp/bindforge_docking_b543ad0f-f013-4b3e-914b-f82674ab16e7/ligand_3b604c32.pdb
REMARK  5 active torsions:
REMARK  status: ('A' for Active; 'I' for Inactive)
REMARK    1  A    between atoms: C1_1  and  C2_2
REMARK    2  A    between atoms: C2_2  and  O2_4
REMARK    3  A    between atoms: O2_4  and  C3_5
REMARK    4  A    between atoms: C8_10  and  C9_11
REMARK    5  A    between atoms: C9_11  and  O4_13
REMARK                            x       y       z     vdW  Elec       q    Type
REMARK                         _______ _______ _______ _____ _____    ______ ____
ROOT
ATOM      1  C3  UNL     1      -7.409   2.118   0.534  0.00  0.00    +0.146 A 
ATOM      2  C4  UNL     1      -6.960   2.074  -0.790  0.00  0.00    +0.047 A 
ATOM      3  C5  UNL     1      -7.299   3.102  -1.668  0.00  0.00    +0.004 A 
ATOM      4  C6  UNL     1      -8.093   4.161  -1.227  0.00  0.00    +0.001 A 
ATOM      5  C7  UNL     1      -8.555   4.192   0.093  0.00  0.00    +0.018 A 
ATOM      6  C8  UNL     1      -8.223   3.165   0.990  0.00  0.00    +0.101 A 
ENDROOT
BRANCH   6   7
ATOM      7  C9  UNL     1      -8.735   3.177   2.385  0.00  0.00    +0.340 C 
ATOM      8  O3  UNL     1      -9.893   3.073   2.744  0.00  0.00    -0.245 OA
BRANCH   7   9
ATOM      9  O4  UNL     1      -7.752   3.327   3.294  0.00  0.00    -0.477 OA
ATOM     10  H8  UNL     1      -8.232   3.517   4.127  0.00  0.00    +0.295 HD
ENDBRANCH   7   9
ENDBRANCH   6   7
BRANCH   1  11
ATOM     11  O2  UNL     1      -7.057   1.042   1.354  0.00  0.00    -0.425 OA
BRANCH  11  13
ATOM     12  C1  UNL     1      -5.071  -0.218   1.387  0.00  0.00    +0.136 C 
ATOM     13  C2  UNL     1      -5.724   1.084   1.748  0.00  0.00    +0.309 C 
ATOM     14  O1  UNL     1      -5.149   2.022   2.283  0.00  0.00    -0.251 OA
ENDBRANCH  11  13
ENDBRANCH   1  11
TORSDOF 4
ENDMDL
