MODEL 3
REMARK VINA RESULT:     0.000      5.206      7.041
REMARK INTER + INTRA:          -0.598
REMARK INTER:                   0.000
REMARK INTRA:                  -0.598
REMARK UNBOUND:                -0.598
REMARK  Name = /tmp/bindforge_docking_85f42c74-3822-4c73-aa73-7f7500b3e001/ligand_1e342629.pdb
REMARK  8 active torsions:
REMARK  status: ('A' for Active; 'I' for Inactive)
REMARK    1  A    between atoms: C1_1  and  C2_2
REMARK    2  A    between atoms: C2_2  and  C3_3
REMARK    3  A    between atoms: C2_2  and  C4_4
REMARK    4  A    between atoms: C4_4  and  C5_5
REMARK    5  A    between atoms: C8_8  and  C11_11
REMARK    6  A    between atoms: C11_11  and  C12_12
REMARK    7  A    between atoms: C11_11  and  C13_13
REMARK    8  A    between atoms: C13_13  and  O2_15
REMARK                            x       y       z     vdW  Elec       q    Type
REMARK                         _______ _______ _______ _____ _____    ______ ____
ROOT
ATOM      1  C5  UNL     1      -0.274  -4.605  -0.979  0.00  0.00    -0.047 A 
ATOM      2  C6  UNL     1      -1.054  -5.391  -1.834  0.00  0.00    +0.004 A 
ATOM      3  C7  UNL     1      -2.221  -4.875  -2.406  0.00  0.00    +0.005 A 
ATOM      4  C8  UNL     1      -2.636  -3.563  -2.136  0.00  0.00    -0.034 A 
ATOM      5  C9  UNL     1      -1.851  -2.781  -1.275  0.00  0.00    +0.005 A 
ATOM      6  C10 UNL     1      -0.684  -3.296  -0.705  0.00  0.00    +0.004 A 
ENDROOT
BRANCH   4   7
ATOM      7  C11 UNL     1      -3.894  -2.976  -2.755  0.00  0.00    +0.124 C 
ATOM      8  C12 UNL     1      -4.129  -1.534  -2.305  0.00  0.00    +0.024 C 
BRANCH   7   9
ATOM      9  C13 UNL     1      -3.905  -3.036  -4.273  0.00  0.00    +0.312 C 
ATOM     10  O1  UNL     1      -4.620  -3.707  -4.998  0.00  0.00    -0.250 OA
BRANCH   9  11
ATOM     11  O2  UNL     1      -2.946  -2.255  -4.822  0.00  0.00    -0.480 OA
ATOM     12  H18 UNL     1      -2.160  -2.433  -4.264  0.00  0.00    +0.295 HD
ENDBRANCH   9  11
ENDBRANCH   7   9
ENDBRANCH   4   7
BRANCH   1  13
ATOM     13  C4  UNL     1       0.989  -5.159  -0.364  0.00  0.00    +0.038 C 
BRANCH  13  15
ATOM     14  C1  UNL     1       2.601  -4.493  -2.173  0.00  0.00    +0.007 C 
ATOM     15  C2  UNL     1       2.012  -5.673  -1.397  0.00  0.00    -0.013 C 
ATOM     16  C3  UNL     1       3.138  -6.472  -0.737  0.00  0.00    +0.007 C 
ENDBRANCH  13  15
ENDBRANCH   1  13
TORSDOF 5
ENDMDL
