MODEL 5
REMARK VINA RESULT:     0.000      6.607      8.254
REMARK INTER + INTRA:          -0.141
REMARK INTER:                   0.000
REMARK INTRA:                  -0.141
REMARK UNBOUND:                -0.141
REMARK  Name = /tmp/bindforge_docking_2ec5c8af-c38e-41dd-b776-c04cb87561df/ligand_a50034be.pdb
REMARK  3 active torsions:
REMARK  status: ('A' for Active; 'I' for Inactive)
REMARK    1  A    between atoms: C4_4  and  C7_7
REMARK    2  A    between atoms: C7_7  and  C8_8
REMARK    3  A    between atoms: C8_8  and  O2_10
REMARK                            x       y       z     vdW  Elec       q    Type
REMARK                         _______ _______ _______ _____ _____    ______ ____
ROOT
ATOM      1  C1  UNL     1      -1.177  -3.597   3.340  0.00  0.00    +0.000 A 
ATOM      2  C2  UNL     1       0.008  -3.358   2.648  0.00  0.00    +0.000 A 
ATOM      3  C3  UNL     1       0.005  -3.303   1.253  0.00  0.00    +0.004 A 
ATOM      4  C4  UNL     1      -1.185  -3.491   0.537  0.00  0.00    -0.037 A 
ATOM      5  C5  UNL     1      -2.374  -3.722   1.244  0.00  0.00    +0.004 A 
ATOM      6  C6  UNL     1      -2.368  -3.777   2.639  0.00  0.00    +0.000 A 
ENDROOT
BRANCH   4   7
ATOM      7  C7  UNL     1      -1.192  -3.420  -0.970  0.00  0.00    +0.155 C 
BRANCH   7   8
ATOM      8  C8  UNL     1      -2.146  -2.396  -1.534  0.00  0.00    +0.309 C 
ATOM      9  O1  UNL     1      -3.149  -2.577  -2.202  0.00  0.00    -0.251 OA
BRANCH   8  10
ATOM     10  O2  UNL     1      -1.771  -1.137  -1.216  0.00  0.00    -0.480 OA
ATOM     11  H8  UNL     1      -2.340  -0.915  -0.449  0.00  0.00    +0.295 HD
ENDBRANCH   8  10
ENDBRANCH   7   8
ENDBRANCH   4   7
TORSDOF 3
ENDMDL
